data_A11_PM
_symmetry_space_group_name_H-M   'P 1'
_cell_length_a 45.804124
_cell_length_b 45.804124
_cell_length_c 45.804124
_cell_angle_alpha 90.000000
_cell_angle_beta 90.000000
_cell_angle_gamma 90.000000
_symmetry_Int_Tables_number 1

loop_
_symmetry_equiv_pos_as_xyz
 'x, y, z'

loop_
_atom_site_label
_atom_site_fract_x
_atom_site_fract_y
_atom_site_fract_z
_atom_site_charge
C 0.646465 0.416648 0.563627 0.000000
C 0.627374 0.394919 0.573159 0.000000
C 0.612055 0.398933 0.599421 0.000000
C 0.616058 0.424097 0.616103 0.000000
C 0.635410 0.445718 0.606168 0.000000
C 0.650731 0.442160 0.580091 0.000000
C 0.672116 0.465335 0.569955 0.000000
N 0.666361 0.474493 0.540005 0.000000
C 0.599992 0.427904 0.644807 0.000000
N 0.584170 0.455493 0.645790 0.000000
C 0.623476 0.367172 0.555519 0.000000
N 0.592853 0.361777 0.548672 0.000000
C 0.541416 0.629578 0.381182 0.000000
C 0.560843 0.639659 0.402649 0.000000
C 0.588102 0.626392 0.405392 0.000000
C 0.596318 0.603402 0.386846 0.000000
C 0.576753 0.593704 0.365610 0.000000
C 0.549190 0.606791 0.362531 0.000000
C 0.528190 0.596518 0.339076 0.000000
N 0.523346 0.565111 0.340624 0.000000
C 0.626192 0.589441 0.389808 0.000000
N 0.631648 0.579932 0.419691 0.000000
C 0.552383 0.664812 0.422436 0.000000
N 0.524534 0.659501 0.436873 0.000000
C 0.431447 0.364017 0.402193 0.000000
C 0.418221 0.355341 0.428464 0.000000
C 0.392594 0.369140 0.437472 0.000000
C 0.379870 0.391275 0.420474 0.000000
C 0.393342 0.399611 0.394472 0.000000
C 0.419133 0.385977 0.385057 0.000000
C 0.433337 0.394933 0.356527 0.000000
N 0.437919 0.426401 0.355167 0.000000
C 0.351711 0.405835 0.430064 0.000000
N 0.353828 0.417065 0.459759 0.000000
C 0.431554 0.331135 0.446736 0.000000
N 0.462129 0.336929 0.453438 0.000000
C 0.372679 0.587331 0.593252 0.000000
C 0.393376 0.609495 0.596092 0.000000
C 0.414756 0.607263 0.617944 0.000000
C 0.415334 0.583364 0.636806 0.000000
C 0.394277 0.561294 0.633670 0.000000
C 0.372840 0.563145 0.612111 0.000000
C 0.349839 0.539479 0.609246 0.000000
N 0.347991 0.528551 0.579410 0.000000
C 0.438396 0.581209 0.660441 0.000000
N 0.454246 0.553659 0.658735 0.000000
C 0.392631 0.635798 0.576005 0.000000
N 0.420766 0.640717 0.561950 0.000000
C 0.654393 0.497064 0.481572 0.000000
C 0.648609 0.509905 0.454694 0.000000
C 0.642586 0.539989 0.452472 0.000000
C 0.636749 0.552727 0.423658 0.000000
C 0.642441 0.557027 0.478019 0.000000
C 0.648218 0.544192 0.504888 0.000000
C 0.654320 0.514119 0.507111 0.000000
C 0.660549 0.501543 0.535918 0.000000
C 0.532781 0.351036 0.531096 0.000000
C 0.504771 0.345751 0.520722 0.000000
C 0.499121 0.344057 0.490526 0.000000
C 0.469212 0.338428 0.480449 0.000000
C 0.522405 0.347838 0.470852 0.000000
C 0.550429 0.353094 0.481225 0.000000
C 0.556063 0.354749 0.511423 0.000000
C 0.585957 0.360137 0.521617 0.000000
C 0.507419 0.476638 0.654156 0.000000
C 0.489050 0.500722 0.655555 0.000000
C 0.500620 0.529080 0.653389 0.000000
C 0.481940 0.555044 0.655150 0.000000
C 0.530951 0.532544 0.649718 0.000000
C 0.549317 0.508455 0.648251 0.000000
C 0.537750 0.480102 0.650515 0.000000
C 0.556454 0.454149 0.649221 0.000000
C 0.451083 0.488538 0.351596 0.000000
C 0.459446 0.517638 0.349591 0.000000
C 0.488996 0.525408 0.346104 0.000000
C 0.497020 0.556364 0.344089 0.000000
C 0.510111 0.503157 0.344663 0.000000
C 0.501762 0.474072 0.346679 0.000000
C 0.472203 0.466296 0.350152 0.000000
C 0.464237 0.435321 0.352013 0.000000
C 0.445966 0.645389 0.486082 0.000000
C 0.470580 0.649929 0.468953 0.000000
C 0.497830 0.654983 0.482179 0.000000
C 0.524327 0.659863 0.464827 0.000000
C 0.499630 0.655363 0.512884 0.000000
C 0.475020 0.650758 0.530016 0.000000
C 0.447771 0.645693 0.516786 0.000000
C 0.421193 0.640796 0.533992 0.000000
C 0.345472 0.488895 0.494272 0.000000
C 0.346241 0.503044 0.521100 0.000000
C 0.352347 0.487253 0.546720 0.000000
C 0.353140 0.501344 0.575491 0.000000
C 0.357830 0.457061 0.544586 0.000000
C 0.357076 0.442920 0.517756 0.000000
C 0.350800 0.458676 0.492153 0.000000
C 0.349530 0.444444 0.463453 0.000000
H 0.658166 0.414047 0.543025 0.000000
H 0.596754 0.382137 0.606628 0.000000
H 0.638181 0.465596 0.619027 0.000000
H 0.671824 0.483880 0.585486 0.000000
H 0.694351 0.456009 0.570339 0.000000
H 0.616128 0.428332 0.662719 0.000000
H 0.585578 0.408837 0.648552 0.000000
H 0.631176 0.348490 0.568677 0.000000
H 0.637321 0.368215 0.535708 0.000000
H 0.519876 0.639630 0.379403 0.000000
H 0.603257 0.633624 0.422308 0.000000
H 0.582641 0.575537 0.351350 0.000000
H 0.537871 0.601130 0.317475 0.000000
H 0.507610 0.609148 0.340579 0.000000
H 0.628309 0.571410 0.373818 0.000000
H 0.643009 0.605853 0.384399 0.000000
H 0.570283 0.669126 0.438130 0.000000
H 0.549695 0.684661 0.409005 0.000000
H 0.451772 0.353563 0.395428 0.000000
H 0.382331 0.362975 0.458084 0.000000
H 0.384015 0.417134 0.381282 0.000000
H 0.418600 0.389122 0.338346 0.000000
H 0.453833 0.382451 0.353452 0.000000
H 0.334075 0.389387 0.429974 0.000000
H 0.345659 0.422964 0.414089 0.000000
H 0.430863 0.310608 0.434100 0.000000
H 0.418214 0.327780 0.466638 0.000000
H 0.356218 0.588502 0.576055 0.000000
H 0.431262 0.624356 0.619823 0.000000
H 0.395045 0.542380 0.648155 0.000000
H 0.354315 0.521922 0.625278 0.000000
H 0.328323 0.548888 0.614719 0.000000
H 0.453053 0.600416 0.659217 0.000000
H 0.427560 0.581803 0.681974 0.000000
H 0.374630 0.633263 0.560039 0.000000
H 0.387809 0.655425 0.589165 0.000000
H 0.659072 0.473805 0.483409 0.000000
H 0.648710 0.496583 0.434912 0.000000
H 0.637115 0.537132 0.405128 0.000000
H 0.637722 0.580278 0.476182 0.000000
H 0.648093 0.557511 0.524673 0.000000
H 0.660000 0.517212 0.554385 0.000000
H 0.537269 0.352408 0.554424 0.000000
H 0.486766 0.342879 0.536097 0.000000
H 0.452748 0.335474 0.497971 0.000000
H 0.517906 0.346566 0.447520 0.000000
H 0.568430 0.356002 0.465852 0.000000
H 0.602590 0.362691 0.504193 0.000000
H 0.498342 0.454651 0.655878 0.000000
H 0.465554 0.498212 0.658362 0.000000
H 0.493402 0.576303 0.653328 0.000000
H 0.540034 0.554529 0.648000 0.000000
H 0.572806 0.510958 0.645383 0.000000
H 0.545017 0.432912 0.651429 0.000000
H 0.428252 0.482403 0.354308 0.000000
H 0.442953 0.534828 0.350747 0.000000
H 0.478628 0.572038 0.345770 0.000000
H 0.532946 0.509305 0.342024 0.000000
H 0.518258 0.456882 0.345590 0.000000
H 0.482710 0.419734 0.350409 0.000000
H 0.424847 0.641473 0.475716 0.000000
H 0.469339 0.649654 0.445191 0.000000
H 0.544520 0.663971 0.477559 0.000000
H 0.520751 0.659271 0.523249 0.000000
H 0.476286 0.650943 0.553779 0.000000
H 0.401017 0.637190 0.521079 0.000000
H 0.340695 0.501284 0.474459 0.000000
H 0.342144 0.526420 0.522850 0.000000
H 0.358537 0.486743 0.594051 0.000000
H 0.362718 0.444694 0.564384 0.000000
H 0.361291 0.419566 0.515990 0.000000
H 0.344428 0.459047 0.444812 0.000000
