data_B11_PM
_symmetry_space_group_name_H-M   'P 1'
_cell_length_a 46.228594
_cell_length_b 46.228594
_cell_length_c 46.228594
_cell_angle_alpha 90.000000
_cell_angle_beta 90.000000
_cell_angle_gamma 90.000000
_symmetry_Int_Tables_number 1

loop_
_symmetry_equiv_pos_as_xyz
 'x, y, z'

loop_
_atom_site_label
_atom_site_fract_x
_atom_site_fract_y
_atom_site_fract_z
_atom_site_charge
C 0.449884 0.420654 0.657761 0.000000
C 0.422312 0.429053 0.642218 0.000000
C 0.409791 0.456499 0.646422 0.000000
C 0.385079 0.464817 0.630581 0.000000
C 0.371917 0.444893 0.611621 0.000000
C 0.384411 0.417376 0.607179 0.000000
C 0.409072 0.409276 0.623135 0.000000
C 0.420625 0.378537 0.621081 0.000000
N 0.445210 0.375977 0.601362 0.000000
C 0.371494 0.396814 0.585170 0.000000
C 0.343257 0.452367 0.597400 0.000000
N 0.342649 0.466102 0.568897 0.000000
C 0.373008 0.495077 0.633982 0.000000
C 0.421756 0.476614 0.669523 0.000000
N 0.442169 0.497890 0.658131 0.000000
C 0.450125 0.577797 0.340781 0.000000
C 0.422700 0.568912 0.356293 0.000000
C 0.410555 0.541307 0.351995 0.000000
C 0.385934 0.532642 0.367781 0.000000
C 0.372526 0.552333 0.386789 0.000000
C 0.384636 0.579992 0.391352 0.000000
C 0.409174 0.588463 0.375423 0.000000
C 0.420145 0.619411 0.377524 0.000000
N 0.444155 0.622513 0.397829 0.000000
C 0.371343 0.600349 0.413314 0.000000
C 0.343867 0.544636 0.400850 0.000000
N 0.343157 0.531210 0.429470 0.000000
C 0.374184 0.502279 0.364219 0.000000
C 0.422924 0.521305 0.329009 0.000000
N 0.443684 0.500528 0.340697 0.000000
C 0.627309 0.587644 0.603391 0.000000
C 0.613837 0.609099 0.582594 0.000000
C 0.588849 0.624639 0.590484 0.000000
C 0.575301 0.643335 0.570537 0.000000
C 0.587753 0.647510 0.543062 0.000000
C 0.612741 0.632015 0.534932 0.000000
C 0.626258 0.613528 0.555052 0.000000
C 0.655332 0.599984 0.547850 0.000000
N 0.656771 0.571453 0.534238 0.000000
C 0.624740 0.635271 0.504640 0.000000
C 0.575356 0.670230 0.522767 0.000000
N 0.554853 0.658362 0.501861 0.000000
C 0.547534 0.658589 0.578865 0.000000
C 0.577282 0.622642 0.621205 0.000000
N 0.553210 0.602344 0.623880 0.000000
C 0.630527 0.415495 0.398870 0.000000
C 0.617171 0.393676 0.419346 0.000000
C 0.592757 0.377556 0.410852 0.000000
C 0.579404 0.358265 0.430367 0.000000
C 0.591445 0.354210 0.458050 0.000000
C 0.615768 0.370395 0.466827 0.000000
C 0.629163 0.389386 0.447108 0.000000
C 0.657742 0.403613 0.454882 0.000000
N 0.658326 0.432397 0.467994 0.000000
C 0.627220 0.367214 0.497345 0.000000
C 0.579367 0.331060 0.478029 0.000000
N 0.558524 0.342392 0.498912 0.000000
C 0.552223 0.342331 0.421417 0.000000
C 0.581584 0.379697 0.379987 0.000000
N 0.557145 0.399576 0.377165 0.000000
C 0.340125 0.504869 0.485533 0.000000
C 0.340025 0.492125 0.512635 0.000000
C 0.366226 0.485549 0.526876 0.000000
C 0.366312 0.471972 0.555672 0.000000
C 0.392429 0.492149 0.512976 0.000000
C 0.392525 0.505057 0.485660 0.000000
C 0.366424 0.511573 0.471540 0.000000
C 0.366744 0.525121 0.442731 0.000000
C 0.506889 0.560209 0.632894 0.000000
C 0.485493 0.540293 0.639571 0.000000
C 0.489059 0.520922 0.662912 0.000000
C 0.466635 0.499967 0.671012 0.000000
C 0.514773 0.521969 0.679075 0.000000
C 0.536295 0.541955 0.672334 0.000000
C 0.532615 0.561411 0.649284 0.000000
C 0.555352 0.582724 0.643343 0.000000
C 0.514416 0.360651 0.540653 0.000000
C 0.492671 0.367154 0.560254 0.000000
C 0.467062 0.350536 0.561066 0.000000
C 0.443803 0.356311 0.581877 0.000000
C 0.463884 0.327477 0.541544 0.000000
C 0.485747 0.320920 0.521878 0.000000
C 0.511331 0.337296 0.521236 0.000000
C 0.534153 0.329306 0.500692 0.000000
C 0.460473 0.671224 0.458164 0.000000
C 0.481857 0.678133 0.478232 0.000000
C 0.507778 0.662333 0.479198 0.000000
C 0.530179 0.670847 0.499974 0.000000
C 0.511726 0.639146 0.459737 0.000000
C 0.490451 0.632289 0.439759 0.000000
C 0.464503 0.648345 0.438595 0.000000
C 0.441841 0.642129 0.417271 0.000000
C 0.487954 0.459602 0.360249 0.000000
C 0.509834 0.440363 0.367335 0.000000
C 0.535759 0.439734 0.351208 0.000000
C 0.558935 0.418989 0.357455 0.000000
C 0.539208 0.459156 0.328107 0.000000
C 0.517202 0.478457 0.320964 0.000000
C 0.491260 0.478846 0.336771 0.000000
C 0.468361 0.499028 0.328149 0.000000
C 0.660528 0.515553 0.507148 0.000000
C 0.660777 0.488509 0.494281 0.000000
C 0.634636 0.474252 0.487504 0.000000
C 0.634611 0.445434 0.474043 0.000000
C 0.608350 0.487996 0.493998 0.000000
C 0.608096 0.515256 0.506972 0.000000
C 0.634114 0.529373 0.513781 0.000000
C 0.633439 0.558002 0.527631 0.000000
H 0.462831 0.405821 0.644542 0.000000
H 0.463463 0.439566 0.662185 0.000000
H 0.445508 0.409967 0.678637 0.000000
H 0.428363 0.371952 0.642647 0.000000
H 0.402997 0.363399 0.615401 0.000000
H 0.356672 0.381034 0.595164 0.000000
H 0.359330 0.408422 0.568458 0.000000
H 0.388422 0.384519 0.573982 0.000000
H 0.329860 0.432740 0.595508 0.000000
H 0.330610 0.466531 0.611799 0.000000
H 0.390488 0.510747 0.637431 0.000000
H 0.361136 0.501984 0.614655 0.000000
H 0.358051 0.496707 0.652501 0.000000
H 0.403619 0.488868 0.678949 0.000000
H 0.431210 0.463873 0.687438 0.000000
H 0.445579 0.588591 0.319997 0.000000
H 0.462897 0.592699 0.354097 0.000000
H 0.463960 0.559116 0.336188 0.000000
H 0.402093 0.634245 0.382680 0.000000
H 0.428287 0.626018 0.356122 0.000000
H 0.356284 0.615865 0.403254 0.000000
H 0.388036 0.612942 0.424513 0.000000
H 0.359331 0.588571 0.430017 0.000000
H 0.331488 0.530177 0.386507 0.000000
H 0.330229 0.564126 0.402407 0.000000
H 0.391846 0.486781 0.360927 0.000000
H 0.362189 0.495224 0.383416 0.000000
H 0.359435 0.500532 0.345546 0.000000
H 0.405061 0.508662 0.319586 0.000000
H 0.432230 0.534114 0.311064 0.000000
H 0.610693 0.576281 0.615943 0.000000
H 0.639751 0.571029 0.591940 0.000000
H 0.642005 0.598171 0.618942 0.000000
H 0.668644 0.598572 0.567567 0.000000
H 0.667683 0.614635 0.533671 0.000000
H 0.607189 0.638100 0.488923 0.000000
H 0.637071 0.616138 0.497998 0.000000
H 0.639255 0.654113 0.502741 0.000000
H 0.565849 0.688204 0.535393 0.000000
H 0.593258 0.679691 0.510201 0.000000
H 0.533875 0.662733 0.559951 0.000000
H 0.534764 0.645308 0.593794 0.000000
H 0.551684 0.679579 0.589416 0.000000
H 0.595015 0.617523 0.636422 0.000000
H 0.569016 0.644070 0.627578 0.000000
H 0.645479 0.405284 0.383353 0.000000
H 0.613854 0.426729 0.386269 0.000000
H 0.642649 0.432190 0.410540 0.000000
H 0.670002 0.389451 0.469621 0.000000
H 0.671535 0.404927 0.435485 0.000000
H 0.609420 0.363835 0.512668 0.000000
H 0.642163 0.348728 0.499417 0.000000
H 0.638921 0.386605 0.504367 0.000000
H 0.570275 0.313012 0.465216 0.000000
H 0.597380 0.321844 0.490623 0.000000
H 0.539232 0.355492 0.406567 0.000000
H 0.557126 0.321675 0.410535 0.000000
H 0.538465 0.337430 0.440077 0.000000
H 0.573792 0.358200 0.373259 0.000000
H 0.599417 0.385298 0.365063 0.000000
H 0.319972 0.509995 0.474408 0.000000
H 0.319793 0.486901 0.523569 0.000000
H 0.387789 0.467169 0.565081 0.000000
H 0.412866 0.487158 0.523735 0.000000
H 0.413037 0.510133 0.475086 0.000000
H 0.388288 0.529682 0.433356 0.000000
H 0.504296 0.575330 0.614979 0.000000
H 0.465521 0.539220 0.627068 0.000000
H 0.472112 0.485900 0.689690 0.000000
H 0.517772 0.507007 0.697113 0.000000
H 0.556171 0.542672 0.685088 0.000000
H 0.574783 0.581134 0.657362 0.000000
H 0.534302 0.373312 0.539888 0.000000
H 0.494890 0.385093 0.575406 0.000000
H 0.424581 0.342051 0.579919 0.000000
H 0.444104 0.314559 0.541958 0.000000
H 0.483131 0.302852 0.506881 0.000000
H 0.529066 0.310502 0.486644 0.000000
H 0.440428 0.683714 0.457467 0.000000
H 0.478615 0.696069 0.493265 0.000000
H 0.524552 0.689530 0.513975 0.000000
H 0.531897 0.626965 0.460746 0.000000
H 0.493308 0.614497 0.424540 0.000000
H 0.422281 0.655980 0.418767 0.000000
H 0.467814 0.460219 0.372508 0.000000
H 0.507463 0.425302 0.385331 0.000000
H 0.578367 0.420821 0.343467 0.000000
H 0.559240 0.458888 0.315582 0.000000
H 0.519980 0.493362 0.302843 0.000000
H 0.473699 0.513101 0.309435 0.000000
H 0.680601 0.526717 0.512498 0.000000
H 0.681058 0.477629 0.489141 0.000000
H 0.613166 0.435802 0.469561 0.000000
H 0.587991 0.477172 0.488837 0.000000
H 0.587533 0.525763 0.511980 0.000000
H 0.611744 0.567137 0.531965 0.000000
