data_B13_PM
_symmetry_space_group_name_H-M   'P 1'
_cell_length_a 47.500363
_cell_length_b 47.500363
_cell_length_c 47.500363
_cell_angle_alpha 90.000000
_cell_angle_beta 90.000000
_cell_angle_gamma 90.000000
_symmetry_Int_Tables_number 1

loop_
_symmetry_equiv_pos_as_xyz
 'x, y, z'

loop_
_atom_site_label
_atom_site_fract_x
_atom_site_fract_y
_atom_site_fract_z
_atom_site_charge
C 0.610611 0.611687 0.561753 0.000000
C 0.585914 0.617146 0.581121 0.000000
C 0.583198 0.601339 0.606114 0.000000
C 0.559814 0.605198 0.623864 0.000000
C 0.539769 0.626184 0.617377 0.000000
C 0.542059 0.641695 0.592178 0.000000
C 0.565534 0.637589 0.574424 0.000000
C 0.569420 0.656120 0.548685 0.000000
N 0.559150 0.642982 0.522737 0.000000
C 0.519299 0.662417 0.583803 0.000000
C 0.516737 0.632948 0.638514 0.000000
N 0.489335 0.618928 0.636614 0.000000
C 0.556033 0.586831 0.649655 0.000000
C 0.606262 0.580768 0.614180 0.000000
N 0.602375 0.553128 0.601154 0.000000
C 0.338643 0.425293 0.507219 0.000000
C 0.338722 0.450786 0.526376 0.000000
C 0.327812 0.476701 0.516727 0.000000
C 0.329672 0.500921 0.533786 0.000000
C 0.340838 0.498793 0.561242 0.000000
C 0.351422 0.472915 0.571099 0.000000
C 0.349788 0.448827 0.553799 0.000000
C 0.358739 0.420412 0.565458 0.000000
N 0.388771 0.414757 0.561500 0.000000
C 0.364752 0.470574 0.599954 0.000000
C 0.340371 0.524256 0.580606 0.000000
N 0.366995 0.539736 0.580219 0.000000
C 0.320128 0.529289 0.522761 0.000000
C 0.312542 0.477900 0.488634 0.000000
N 0.327711 0.485527 0.462886 0.000000
C 0.640660 0.390775 0.513806 0.000000
C 0.615030 0.372255 0.517845 0.000000
C 0.605992 0.364642 0.545084 0.000000
C 0.581457 0.348252 0.548620 0.000000
C 0.567008 0.338073 0.524786 0.000000
C 0.575697 0.346015 0.497509 0.000000
C 0.600035 0.362592 0.494107 0.000000
C 0.611256 0.368410 0.464759 0.000000
N 0.599448 0.393746 0.451739 0.000000
C 0.559015 0.336580 0.472036 0.000000
C 0.543356 0.316811 0.528190 0.000000
N 0.514220 0.326291 0.531291 0.000000
C 0.570782 0.341522 0.577924 0.000000
C 0.623686 0.372247 0.570617 0.000000
N 0.620911 0.399914 0.583862 0.000000
C 0.475513 0.501084 0.324992 0.000000
C 0.492477 0.527605 0.330013 0.000000
C 0.478775 0.552659 0.337982 0.000000
C 0.494475 0.577268 0.343468 0.000000
C 0.523975 0.576910 0.340155 0.000000
C 0.537849 0.551704 0.332745 0.000000
C 0.521993 0.527398 0.326606 0.000000
C 0.536272 0.501820 0.313756 0.000000
N 0.547080 0.479145 0.331496 0.000000
C 0.569698 0.550868 0.331239 0.000000
C 0.540845 0.604013 0.342290 0.000000
N 0.550744 0.614231 0.369614 0.000000
C 0.479538 0.603748 0.353055 0.000000
C 0.446824 0.553665 0.338733 0.000000
N 0.434869 0.545098 0.365834 0.000000
C 0.422653 0.562986 0.584279 0.000000
C 0.403559 0.562772 0.606828 0.000000
C 0.376652 0.547935 0.604130 0.000000
C 0.411087 0.576400 0.632293 0.000000
O 0.391535 0.575671 0.653602 0.000000
C 0.398577 0.589677 0.679320 0.000000
C 0.437099 0.589774 0.634418 0.000000
C 0.456304 0.589832 0.611952 0.000000
C 0.483702 0.603861 0.614874 0.000000
C 0.448798 0.576100 0.586559 0.000000
O 0.468388 0.576745 0.565270 0.000000
C 0.461247 0.562892 0.539594 0.000000
C 0.591264 0.496774 0.580824 0.000000
C 0.605534 0.502695 0.606036 0.000000
C 0.607619 0.531594 0.616642 0.000000
C 0.618352 0.480268 0.620985 0.000000
O 0.631798 0.487168 0.645646 0.000000
C 0.644842 0.464780 0.660992 0.000000
C 0.617543 0.453143 0.609936 0.000000
C 0.603718 0.447233 0.584516 0.000000
C 0.605105 0.418724 0.572541 0.000000
C 0.589808 0.469421 0.570204 0.000000
O 0.575664 0.462225 0.545988 0.000000
C 0.563225 0.484495 0.530041 0.000000
C 0.570436 0.634976 0.421938 0.000000
C 0.550504 0.613247 0.419995 0.000000
C 0.542102 0.602309 0.392292 0.000000
C 0.538233 0.602683 0.445053 0.000000
O 0.518925 0.581335 0.441863 0.000000
C 0.506198 0.570294 0.466714 0.000000
C 0.545828 0.614150 0.470979 0.000000
C 0.565804 0.635862 0.472883 0.000000
C 0.573678 0.647497 0.500365 0.000000
C 0.578298 0.646258 0.447837 0.000000
O 0.597497 0.667680 0.450900 0.000000
C 0.610085 0.678657 0.425842 0.000000
C 0.446883 0.399956 0.549814 0.000000
C 0.424216 0.381131 0.547006 0.000000
C 0.395150 0.390365 0.551674 0.000000
C 0.429783 0.352703 0.539697 0.000000
O 0.406855 0.335147 0.537575 0.000000
C 0.412150 0.306363 0.530473 0.000000
C 0.457438 0.343959 0.535468 0.000000
C 0.480088 0.362703 0.538310 0.000000
C 0.509071 0.352662 0.534341 0.000000
C 0.474587 0.391135 0.545562 0.000000
O 0.497768 0.408177 0.548243 0.000000
C 0.493270 0.436960 0.555767 0.000000
C 0.356788 0.498987 0.412335 0.000000
C 0.368987 0.502180 0.439063 0.000000
C 0.353479 0.493581 0.464459 0.000000
C 0.396177 0.514322 0.441067 0.000000
O 0.407134 0.516877 0.467732 0.000000
C 0.434569 0.528826 0.470286 0.000000
C 0.410075 0.523096 0.416747 0.000000
C 0.397796 0.519989 0.390026 0.000000
C 0.412663 0.529633 0.364756 0.000000
C 0.370702 0.507568 0.387967 0.000000
O 0.359507 0.505215 0.361377 0.000000
C 0.332031 0.493125 0.358942 0.000000
C 0.565932 0.433220 0.363774 0.000000
C 0.558881 0.459110 0.376114 0.000000
C 0.547604 0.481885 0.358392 0.000000
C 0.563043 0.462668 0.405457 0.000000
O 0.556112 0.488560 0.416310 0.000000
C 0.559907 0.492715 0.445843 0.000000
C 0.573824 0.440492 0.421445 0.000000
C 0.580729 0.414536 0.409055 0.000000
C 0.592026 0.391259 0.425823 0.000000
C 0.576688 0.411082 0.379657 0.000000
O 0.584086 0.385467 0.368463 0.000000
C 0.580230 0.381687 0.338840 0.000000
H 0.629830 0.622468 0.569072 0.000000
H 0.606460 0.618763 0.540229 0.000000
H 0.615283 0.589086 0.560679 0.000000
H 0.557329 0.675661 0.551601 0.000000
H 0.591717 0.662643 0.546834 0.000000
H 0.514515 0.660565 0.561266 0.000000
H 0.525540 0.684411 0.587802 0.000000
H 0.499596 0.658645 0.595175 0.000000
H 0.524513 0.629097 0.660001 0.000000
H 0.512287 0.655738 0.638193 0.000000
H 0.566921 0.595455 0.668249 0.000000
H 0.564308 0.565586 0.646062 0.000000
H 0.533738 0.584465 0.655142 0.000000
H 0.626543 0.589037 0.606543 0.000000
H 0.608256 0.579319 0.637328 0.000000
H 0.356858 0.411720 0.511263 0.000000
H 0.339709 0.431415 0.484990 0.000000
H 0.319593 0.412323 0.509985 0.000000
H 0.354761 0.420213 0.588299 0.000000
H 0.345479 0.403503 0.556472 0.000000
H 0.382646 0.455977 0.599513 0.000000
H 0.349696 0.462768 0.615812 0.000000
H 0.372761 0.490843 0.607414 0.000000
H 0.323847 0.538836 0.573478 0.000000
H 0.334383 0.517767 0.602179 0.000000
H 0.299208 0.535240 0.530868 0.000000
H 0.318984 0.529640 0.499730 0.000000
H 0.334967 0.545858 0.529033 0.000000
H 0.294735 0.492728 0.490099 0.000000
H 0.302423 0.457495 0.484353 0.000000
H 0.659311 0.378463 0.507534 0.000000
H 0.646139 0.402338 0.532982 0.000000
H 0.636855 0.406469 0.497273 0.000000
H 0.608203 0.349627 0.451291 0.000000
H 0.634165 0.371636 0.466059 0.000000
H 0.567279 0.316821 0.463083 0.000000
H 0.536806 0.333099 0.477253 0.000000
H 0.559561 0.352464 0.455317 0.000000
H 0.547651 0.303311 0.546590 0.000000
H 0.543538 0.302069 0.510304 0.000000
H 0.548107 0.337262 0.577935 0.000000
H 0.574284 0.359237 0.592333 0.000000
H 0.581357 0.322989 0.587059 0.000000
H 0.620444 0.356637 0.587419 0.000000
H 0.646199 0.370106 0.565289 0.000000
H 0.457693 0.499685 0.339584 0.000000
H 0.488254 0.482097 0.328103 0.000000
H 0.466888 0.500270 0.303455 0.000000
H 0.554182 0.508724 0.300687 0.000000
H 0.521883 0.491808 0.298581 0.000000
H 0.579150 0.564485 0.347327 0.000000
H 0.577718 0.557934 0.310633 0.000000
H 0.577795 0.529563 0.334862 0.000000
H 0.559538 0.602693 0.328682 0.000000
H 0.528511 0.621467 0.333168 0.000000
H 0.463366 0.598714 0.368785 0.000000
H 0.468964 0.614598 0.335471 0.000000
H 0.493999 0.618836 0.362786 0.000000
H 0.439987 0.575491 0.335012 0.000000
H 0.438091 0.541141 0.321121 0.000000
H 0.415992 0.552241 0.565166 0.000000
H 0.365184 0.543930 0.623962 0.000000
H 0.402081 0.612349 0.675896 0.000000
H 0.380410 0.586697 0.693200 0.000000
H 0.417433 0.580400 0.689143 0.000000
H 0.443683 0.600680 0.653462 0.000000
H 0.498842 0.600794 0.597597 0.000000
H 0.479497 0.565713 0.525766 0.000000
H 0.457477 0.540222 0.542928 0.000000
H 0.442510 0.572366 0.529705 0.000000
H 0.581609 0.514548 0.570052 0.000000
H 0.614576 0.533854 0.638712 0.000000
H 0.653831 0.474579 0.679830 0.000000
H 0.629375 0.448669 0.667260 0.000000
H 0.661752 0.454796 0.648650 0.000000
H 0.628045 0.435519 0.620127 0.000000
H 0.592790 0.414801 0.553304 0.000000
H 0.546847 0.495599 0.542189 0.000000
H 0.553634 0.474323 0.511695 0.000000
H 0.579171 0.499820 0.523016 0.000000
H 0.579139 0.642602 0.402166 0.000000
H 0.527880 0.584011 0.392149 0.000000
H 0.493912 0.586509 0.477898 0.000000
H 0.522030 0.561421 0.481214 0.000000
H 0.492095 0.553521 0.459516 0.000000
H 0.536680 0.606896 0.490702 0.000000
H 0.592919 0.660552 0.500725 0.000000
H 0.594139 0.687786 0.411687 0.000000
H 0.621986 0.662313 0.414468 0.000000
H 0.624520 0.695202 0.432874 0.000000
H 0.441729 0.421544 0.555535 0.000000
H 0.378711 0.374791 0.546438 0.000000
H 0.422319 0.304484 0.509710 0.000000
H 0.391460 0.296203 0.529860 0.000000
H 0.425394 0.296015 0.546460 0.000000
H 0.462724 0.322323 0.530109 0.000000
H 0.525796 0.368703 0.534409 0.000000
H 0.480645 0.448024 0.539737 0.000000
H 0.482767 0.438801 0.576369 0.000000
H 0.514315 0.446335 0.556987 0.000000
H 0.335831 0.489743 0.411767 0.000000
H 0.364944 0.494752 0.484567 0.000000
H 0.439397 0.528464 0.492836 0.000000
H 0.450390 0.516299 0.458801 0.000000
H 0.435077 0.550720 0.462587 0.000000
H 0.430827 0.532796 0.417401 0.000000
H 0.403453 0.523027 0.344456 0.000000
H 0.316223 0.505725 0.370312 0.000000
H 0.331624 0.471332 0.366877 0.000000
H 0.327185 0.493200 0.336398 0.000000
H 0.562595 0.431517 0.341177 0.000000
H 0.539922 0.500899 0.369218 0.000000
H 0.553312 0.514446 0.449935 0.000000
H 0.546746 0.478100 0.458182 0.000000
H 0.582110 0.490083 0.452044 0.000000
H 0.577359 0.442373 0.444012 0.000000
H 0.594164 0.371017 0.414600 0.000000
H 0.587299 0.360204 0.334352 0.000000
H 0.557935 0.383916 0.332841 0.000000
H 0.592995 0.396748 0.326665 0.000000
