data_B15_PM
_symmetry_space_group_name_H-M   'P 1'
_cell_length_a 52.760892
_cell_length_b 52.760892
_cell_length_c 52.760892
_cell_angle_alpha 90.000000
_cell_angle_beta 90.000000
_cell_angle_gamma 90.000000
_symmetry_Int_Tables_number 1

loop_
_symmetry_equiv_pos_as_xyz
 'x, y, z'

loop_
_atom_site_label
_atom_site_fract_x
_atom_site_fract_y
_atom_site_fract_z
_atom_site_charge
C 0.458741 0.536975 0.709856 0.000000
C 0.485964 0.544511 0.704801 0.000000
C 0.505312 0.526152 0.706624 0.000000
C 0.530526 0.532457 0.700571 0.000000
C 0.536563 0.557634 0.693897 0.000000
C 0.517400 0.576108 0.692024 0.000000
C 0.492179 0.569659 0.698250 0.000000
C 0.471948 0.590121 0.699420 0.000000
N 0.456795 0.596071 0.676948 0.000000
C 0.523749 0.602687 0.683205 0.000000
C 0.564132 0.564977 0.690019 0.000000
N 0.573461 0.558539 0.664746 0.000000
C 0.551238 0.512595 0.700930 0.000000
C 0.499016 0.499769 0.716448 0.000000
N 0.489197 0.483233 0.696551 0.000000
C 0.393578 0.661171 0.422491 0.000000
C 0.376803 0.639326 0.414446 0.000000
C 0.378848 0.628904 0.389915 0.000000
C 0.364053 0.607706 0.383045 0.000000
C 0.346120 0.597873 0.400260 0.000000
C 0.344124 0.608128 0.424883 0.000000
C 0.359027 0.629226 0.431671 0.000000
C 0.354828 0.642154 0.457068 0.000000
N 0.372002 0.633263 0.476942 0.000000
C 0.326058 0.596551 0.443953 0.000000
C 0.327749 0.577447 0.391601 0.000000
N 0.334128 0.550617 0.394613 0.000000
C 0.367367 0.595637 0.357199 0.000000
C 0.395515 0.641548 0.370114 0.000000
N 0.422009 0.633925 0.367068 0.000000
C 0.402928 0.321216 0.510202 0.000000
C 0.426091 0.312087 0.495923 0.000000
C 0.447158 0.302092 0.508904 0.000000
C 0.469188 0.295006 0.495503 0.000000
C 0.469548 0.296606 0.468847 0.000000
C 0.448554 0.306750 0.455695 0.000000
C 0.426673 0.313806 0.469246 0.000000
C 0.403026 0.322144 0.455065 0.000000
N 0.400385 0.349698 0.453966 0.000000
C 0.449668 0.310199 0.427216 0.000000
C 0.491858 0.285931 0.454075 0.000000
N 0.512910 0.302426 0.446627 0.000000
C 0.492278 0.285866 0.509886 0.000000
C 0.445758 0.297564 0.537339 0.000000
N 0.457483 0.317922 0.552013 0.000000
C 0.679946 0.584619 0.424145 0.000000
C 0.681631 0.556451 0.418969 0.000000
C 0.670143 0.546324 0.397084 0.000000
C 0.670183 0.519969 0.392741 0.000000
C 0.682720 0.503839 0.409976 0.000000
C 0.694161 0.513791 0.431982 0.000000
C 0.694383 0.540224 0.435957 0.000000
C 0.709364 0.551425 0.457824 0.000000
N 0.696909 0.556047 0.482185 0.000000
C 0.705796 0.496011 0.451281 0.000000
C 0.684879 0.475667 0.404378 0.000000
N 0.664390 0.460979 0.415863 0.000000
C 0.656649 0.509088 0.369873 0.000000
C 0.658507 0.564198 0.377734 0.000000
N 0.632267 0.570576 0.383891 0.000000
C 0.364211 0.616955 0.544104 0.000000
C 0.377635 0.610550 0.565912 0.000000
C 0.404041 0.606843 0.565110 0.000000
C 0.416383 0.609565 0.541530 0.000000
C 0.403058 0.616194 0.519813 0.000000
C 0.376684 0.620131 0.520773 0.000000
C 0.362042 0.627961 0.498473 0.000000
C 0.418486 0.600777 0.588351 0.000000
C 0.438762 0.583461 0.588030 0.000000
C 0.452405 0.578177 0.610038 0.000000
C 0.446422 0.590179 0.633036 0.000000
C 0.461213 0.584616 0.655988 0.000000
C 0.426145 0.607509 0.633430 0.000000
C 0.412432 0.612604 0.611572 0.000000
C 0.478257 0.356682 0.586138 0.000000
C 0.486195 0.375356 0.602915 0.000000
C 0.468904 0.387491 0.619326 0.000000
C 0.443272 0.380228 0.618181 0.000000
C 0.435344 0.361311 0.601582 0.000000
C 0.452651 0.349230 0.585336 0.000000
C 0.443577 0.329012 0.568556 0.000000
C 0.477445 0.407037 0.637478 0.000000
C 0.462611 0.428789 0.642185 0.000000
C 0.470222 0.446962 0.659622 0.000000
C 0.492944 0.443939 0.673255 0.000000
C 0.501066 0.462473 0.692328 0.000000
C 0.507863 0.422385 0.668567 0.000000
C 0.500338 0.404290 0.650867 0.000000
C 0.635698 0.544592 0.512767 0.000000
C 0.622903 0.548174 0.535600 0.000000
C 0.634429 0.561178 0.555823 0.000000
C 0.659320 0.570350 0.552296 0.000000
C 0.672146 0.566604 0.529648 0.000000
C 0.660519 0.553628 0.509444 0.000000
C 0.673751 0.549395 0.485305 0.000000
C 0.621132 0.565072 0.580161 0.000000
C 0.605407 0.546070 0.590538 0.000000
C 0.593576 0.549344 0.613829 0.000000
C 0.596814 0.571973 0.627579 0.000000
C 0.585411 0.575859 0.652614 0.000000
C 0.611991 0.591172 0.617085 0.000000
C 0.624055 0.587759 0.593873 0.000000
C 0.347242 0.497823 0.398016 0.000000
C 0.353989 0.472626 0.401431 0.000000
C 0.375255 0.465824 0.416168 0.000000
C 0.389665 0.485400 0.427134 0.000000
C 0.383037 0.510731 0.423502 0.000000
C 0.361657 0.517360 0.409078 0.000000
C 0.354682 0.544157 0.405830 0.000000
C 0.381664 0.438836 0.420110 0.000000
C 0.389805 0.429940 0.443993 0.000000
C 0.394765 0.404408 0.448064 0.000000
C 0.391982 0.386754 0.428259 0.000000
C 0.396103 0.359545 0.432173 0.000000
C 0.384439 0.395575 0.404287 0.000000
C 0.379221 0.421141 0.400300 0.000000
C 0.473574 0.618459 0.359474 0.000000
C 0.498747 0.611145 0.357469 0.000000
C 0.510283 0.595899 0.376177 0.000000
C 0.495442 0.588123 0.396919 0.000000
C 0.470064 0.595235 0.398814 0.000000
C 0.458777 0.610614 0.380243 0.000000
C 0.432115 0.618335 0.382714 0.000000
C 0.537214 0.588531 0.373883 0.000000
C 0.547623 0.582160 0.350165 0.000000
C 0.573055 0.575524 0.347921 0.000000
C 0.589050 0.575283 0.369215 0.000000
C 0.615914 0.568923 0.366006 0.000000
C 0.578730 0.581517 0.393007 0.000000
C 0.553289 0.587899 0.395259 0.000000
C 0.553856 0.335199 0.430885 0.000000
C 0.572840 0.352080 0.424041 0.000000
C 0.572830 0.377347 0.432879 0.000000
C 0.553059 0.384902 0.449098 0.000000
C 0.533897 0.368009 0.455859 0.000000
C 0.533913 0.342945 0.446835 0.000000
C 0.513275 0.325594 0.453960 0.000000
C 0.592949 0.395199 0.425011 0.000000
C 0.602815 0.413451 0.441914 0.000000
C 0.621985 0.429951 0.434582 0.000000
C 0.631954 0.428930 0.409855 0.000000
C 0.652557 0.445501 0.401357 0.000000
C 0.621959 0.411055 0.392832 0.000000
C 0.602893 0.394415 0.400272 0.000000
H 0.445355 0.549367 0.699908 0.000000
H 0.455177 0.517562 0.703339 0.000000
H 0.454075 0.537810 0.730219 0.000000
H 0.480476 0.608169 0.705569 0.000000
H 0.458287 0.585628 0.714554 0.000000
H 0.538512 0.602414 0.668569 0.000000
H 0.530669 0.614743 0.698802 0.000000
H 0.507239 0.612144 0.674867 0.000000
H 0.567038 0.585232 0.694533 0.000000
H 0.575768 0.554285 0.703688 0.000000
H 0.565873 0.516942 0.686846 0.000000
H 0.560467 0.511221 0.719633 0.000000
H 0.543829 0.493768 0.696286 0.000000
H 0.484061 0.501468 0.730918 0.000000
H 0.515658 0.491464 0.726102 0.000000
H 0.383922 0.679593 0.420428 0.000000
H 0.399163 0.659210 0.442426 0.000000
H 0.411045 0.662032 0.411281 0.000000
H 0.334729 0.640427 0.462804 0.000000
H 0.358417 0.662592 0.454744 0.000000
H 0.334024 0.597128 0.463144 0.000000
H 0.322118 0.576606 0.439686 0.000000
H 0.307740 0.606583 0.444518 0.000000
H 0.309283 0.580089 0.400999 0.000000
H 0.323469 0.580070 0.371335 0.000000
H 0.386964 0.597371 0.350483 0.000000
H 0.362865 0.575352 0.357629 0.000000
H 0.355052 0.604458 0.342801 0.000000
H 0.395818 0.662194 0.373313 0.000000
H 0.386744 0.639522 0.351286 0.000000
H 0.388813 0.306021 0.512796 0.000000
H 0.407908 0.328336 0.529056 0.000000
H 0.393725 0.336867 0.500108 0.000000
H 0.402499 0.313448 0.436004 0.000000
H 0.386303 0.314844 0.465231 0.000000
H 0.469236 0.311711 0.420427 0.000000
H 0.439939 0.327625 0.421391 0.000000
H 0.440677 0.294345 0.416999 0.000000
H 0.484972 0.277101 0.436446 0.000000
H 0.500402 0.270064 0.464620 0.000000
H 0.493955 0.295723 0.528109 0.000000
H 0.509811 0.289448 0.499324 0.000000
H 0.491437 0.265348 0.513806 0.000000
H 0.425913 0.294145 0.543145 0.000000
H 0.456253 0.280064 0.541772 0.000000
H 0.682379 0.588923 0.444315 0.000000
H 0.694469 0.595389 0.413651 0.000000
H 0.661343 0.592001 0.418504 0.000000
H 0.717670 0.569680 0.452018 0.000000
H 0.725955 0.539440 0.461970 0.000000
H 0.706493 0.504592 0.470187 0.000000
H 0.725315 0.490536 0.446185 0.000000
H 0.694582 0.478573 0.452883 0.000000
H 0.686189 0.472446 0.383691 0.000000
H 0.702762 0.468593 0.412487 0.000000
H 0.649450 0.489988 0.373660 0.000000
H 0.640222 0.520639 0.364580 0.000000
H 0.669143 0.507903 0.353171 0.000000
H 0.669313 0.582059 0.377816 0.000000
H 0.660382 0.556351 0.358379 0.000000
H 0.343706 0.619655 0.545107 0.000000
H 0.367541 0.607986 0.583769 0.000000
H 0.436900 0.607154 0.540565 0.000000
H 0.412776 0.618777 0.501757 0.000000
H 0.341284 0.629563 0.501551 0.000000
H 0.443532 0.573681 0.570447 0.000000
H 0.467936 0.564497 0.609469 0.000000
H 0.476225 0.570106 0.654064 0.000000
H 0.421643 0.616929 0.651261 0.000000
H 0.397107 0.626479 0.612142 0.000000
H 0.491634 0.347461 0.573368 0.000000
H 0.506063 0.381095 0.603156 0.000000
H 0.429625 0.389025 0.630977 0.000000
H 0.415449 0.355586 0.601293 0.000000
H 0.423443 0.323558 0.571311 0.000000
H 0.445064 0.431524 0.631587 0.000000
H 0.458816 0.463839 0.663090 0.000000
H 0.518286 0.457244 0.703222 0.000000
H 0.525476 0.419714 0.679120 0.000000
H 0.511924 0.387434 0.647868 0.000000
H 0.626343 0.534687 0.497177 0.000000
H 0.603500 0.541320 0.537622 0.000000
H 0.668827 0.580016 0.567910 0.000000
H 0.691482 0.573425 0.527099 0.000000
H 0.662590 0.540163 0.470148 0.000000
H 0.603139 0.528194 0.580392 0.000000
H 0.581846 0.534414 0.621991 0.000000
H 0.588230 0.595009 0.660872 0.000000
H 0.614407 0.608974 0.627382 0.000000
H 0.635559 0.603012 0.585982 0.000000
H 0.330578 0.502975 0.386940 0.000000
H 0.342289 0.457728 0.393138 0.000000
H 0.406481 0.480699 0.438209 0.000000
H 0.394583 0.525677 0.431989 0.000000
H 0.368112 0.558248 0.413647 0.000000
H 0.391506 0.443302 0.459685 0.000000
H 0.400573 0.397533 0.466667 0.000000
H 0.394731 0.347648 0.414871 0.000000
H 0.382522 0.382141 0.388647 0.000000
H 0.373552 0.427632 0.381508 0.000000
H 0.464809 0.630538 0.345187 0.000000
H 0.510056 0.617781 0.341478 0.000000
H 0.503767 0.575921 0.411386 0.000000
H 0.458756 0.588809 0.414924 0.000000
H 0.421476 0.610022 0.398766 0.000000
H 0.535463 0.581938 0.333448 0.000000
H 0.580746 0.570441 0.329380 0.000000
H 0.621442 0.562758 0.346656 0.000000
H 0.591182 0.581418 0.409500 0.000000
H 0.545682 0.593148 0.413761 0.000000
H 0.554021 0.315674 0.424124 0.000000
H 0.588345 0.345609 0.411986 0.000000
H 0.552322 0.404418 0.455886 0.000000
H 0.518485 0.374344 0.468147 0.000000
H 0.498093 0.333790 0.465879 0.000000
H 0.595655 0.414148 0.461303 0.000000
H 0.629794 0.443752 0.447835 0.000000
H 0.657708 0.443541 0.381042 0.000000
H 0.629304 0.410253 0.373489 0.000000
H 0.595184 0.380943 0.386621 0.000000
