data_B18_PM
_symmetry_space_group_name_H-M   'P 1'
_cell_length_a 52.965022
_cell_length_b 52.965022
_cell_length_c 52.965022
_cell_angle_alpha 90.000000
_cell_angle_beta 90.000000
_cell_angle_gamma 90.000000
_symmetry_Int_Tables_number 1

loop_
_symmetry_equiv_pos_as_xyz
 'x, y, z'

loop_
_atom_site_label
_atom_site_fract_x
_atom_site_fract_y
_atom_site_fract_z
_atom_site_charge
C 0.691306 0.635710 0.520529 0.000000
C 0.690065 0.625048 0.547041 0.000000
C 0.677857 0.638644 0.566452 0.000000
C 0.675371 0.627987 0.590716 0.000000
C 0.686427 0.604335 0.595945 0.000000
C 0.698595 0.590632 0.576693 0.000000
C 0.700899 0.601373 0.552427 0.000000
C 0.715943 0.587551 0.532284 0.000000
N 0.700699 0.568984 0.518676 0.000000
C 0.708932 0.564435 0.581515 0.000000
C 0.685923 0.594170 0.622796 0.000000
N 0.662653 0.580419 0.628247 0.000000
C 0.660686 0.641544 0.611140 0.000000
C 0.668257 0.665195 0.561510 0.000000
N 0.642412 0.668941 0.552397 0.000000
C 0.501747 0.351333 0.315094 0.000000
C 0.529047 0.359662 0.313803 0.000000
C 0.547983 0.346637 0.327171 0.000000
C 0.573132 0.355419 0.326859 0.000000
C 0.579515 0.376580 0.312034 0.000000
C 0.560591 0.389910 0.298814 0.000000
C 0.535567 0.380951 0.299171 0.000000
C 0.515640 0.393543 0.282780 0.000000
N 0.500053 0.411503 0.296794 0.000000
C 0.567156 0.413827 0.284578 0.000000
C 0.606948 0.384446 0.309232 0.000000
N 0.617644 0.403333 0.326358 0.000000
C 0.592930 0.342192 0.342653 0.000000
C 0.541670 0.322315 0.341077 0.000000
N 0.536369 0.326501 0.367849 0.000000
C 0.372943 0.680730 0.404943 0.000000
C 0.355157 0.668873 0.423912 0.000000
C 0.354291 0.677600 0.449040 0.000000
C 0.338902 0.665258 0.466978 0.000000
C 0.323473 0.645010 0.459308 0.000000
C 0.324156 0.636225 0.434177 0.000000
C 0.339479 0.648703 0.416398 0.000000
C 0.338570 0.641227 0.388699 0.000000
N 0.358726 0.623603 0.382048 0.000000
C 0.308690 0.613326 0.426889 0.000000
C 0.305242 0.632999 0.477936 0.000000
N 0.315786 0.610385 0.489728 0.000000
C 0.339187 0.673537 0.494345 0.000000
C 0.369244 0.700885 0.456491 0.000000
N 0.395120 0.698098 0.465810 0.000000
C 0.376839 0.351128 0.640959 0.000000
C 0.398544 0.358130 0.658193 0.000000
C 0.421240 0.344220 0.657188 0.000000
C 0.442144 0.351474 0.671938 0.000000
C 0.439874 0.372091 0.688650 0.000000
C 0.417326 0.386128 0.689744 0.000000
C 0.396382 0.378572 0.675077 0.000000
C 0.371086 0.391579 0.678712 0.000000
N 0.364555 0.413852 0.663706 0.000000
C 0.415532 0.409293 0.706417 0.000000
C 0.461545 0.378372 0.706413 0.000000
N 0.480835 0.393977 0.694371 0.000000
C 0.467085 0.337644 0.669993 0.000000
C 0.422565 0.320606 0.640920 0.000000
N 0.428915 0.326249 0.614662 0.000000
C 0.638682 0.440895 0.359485 0.000000
C 0.647935 0.458443 0.376530 0.000000
C 0.633203 0.466216 0.397472 0.000000
C 0.643068 0.484055 0.414764 0.000000
C 0.652422 0.499422 0.429210 0.000000
C 0.663956 0.517134 0.445569 0.000000
C 0.680750 0.535441 0.435859 0.000000
C 0.692525 0.552477 0.451974 0.000000
C 0.688256 0.551748 0.478172 0.000000
C 0.701753 0.569538 0.494499 0.000000
C 0.671343 0.533652 0.487874 0.000000
C 0.659311 0.516735 0.471915 0.000000
C 0.608831 0.455835 0.400503 0.000000
C 0.599628 0.438367 0.383165 0.000000
C 0.614362 0.430535 0.362523 0.000000
C 0.604317 0.411790 0.344720 0.000000
C 0.446080 0.693192 0.483827 0.000000
C 0.470413 0.689563 0.492687 0.000000
C 0.480439 0.664882 0.495326 0.000000
C 0.505288 0.661455 0.504496 0.000000
C 0.526808 0.659158 0.512520 0.000000
C 0.551792 0.656831 0.521679 0.000000
C 0.562250 0.632927 0.527258 0.000000
C 0.586892 0.630970 0.536134 0.000000
C 0.601940 0.652558 0.539724 0.000000
C 0.627984 0.649799 0.548936 0.000000
C 0.591507 0.676407 0.534211 0.000000
C 0.566962 0.678571 0.525390 0.000000
C 0.465103 0.644096 0.488652 0.000000
C 0.440706 0.647960 0.479708 0.000000
C 0.430774 0.672456 0.477186 0.000000
C 0.404891 0.676031 0.467875 0.000000
C 0.519549 0.427055 0.673386 0.000000
C 0.538215 0.443454 0.665109 0.000000
C 0.544405 0.465300 0.679220 0.000000
C 0.564050 0.481657 0.671168 0.000000
C 0.581341 0.495455 0.664650 0.000000
C 0.601908 0.511136 0.657578 0.000000
C 0.626969 0.502864 0.661299 0.000000
C 0.647145 0.518268 0.654595 0.000000
C 0.643076 0.542265 0.643997 0.000000
C 0.664796 0.558117 0.637381 0.000000
C 0.618086 0.550492 0.640172 0.000000
C 0.597841 0.535269 0.646840 0.000000
C 0.530994 0.470240 0.701708 0.000000
C 0.512379 0.453637 0.709911 0.000000
C 0.506432 0.431815 0.696017 0.000000
C 0.487052 0.414507 0.705586 0.000000
C 0.481085 0.477495 0.287603 0.000000
C 0.465896 0.496508 0.297483 0.000000
C 0.451374 0.492048 0.319379 0.000000
C 0.435224 0.511039 0.329195 0.000000
C 0.420942 0.527261 0.337231 0.000000
C 0.403981 0.545989 0.346142 0.000000
C 0.412948 0.567642 0.358996 0.000000
C 0.396309 0.586100 0.367266 0.000000
C 0.370180 0.583645 0.363010 0.000000
C 0.352173 0.603036 0.371108 0.000000
C 0.361236 0.562045 0.350435 0.000000
C 0.377767 0.543430 0.342105 0.000000
C 0.452941 0.468097 0.331152 0.000000
C 0.468223 0.449297 0.321217 0.000000
C 0.482442 0.453641 0.299171 0.000000
C 0.498143 0.433876 0.287768 0.000000
C 0.484772 0.308961 0.410601 0.000000
C 0.477056 0.309854 0.435689 0.000000
C 0.492294 0.321778 0.454021 0.000000
C 0.484907 0.322074 0.479801 0.000000
C 0.478650 0.321727 0.502000 0.000000
C 0.471291 0.320637 0.527758 0.000000
C 0.483946 0.304449 0.544740 0.000000
C 0.476171 0.302841 0.569771 0.000000
C 0.455729 0.317229 0.578708 0.000000
C 0.447622 0.314302 0.605025 0.000000
C 0.443361 0.333706 0.561900 0.000000
C 0.450935 0.335375 0.536880 0.000000
C 0.515236 0.333066 0.446190 0.000000
C 0.522744 0.332123 0.421110 0.000000
C 0.507719 0.319864 0.402914 0.000000
C 0.515470 0.317794 0.376406 0.000000
C 0.388798 0.449984 0.609957 0.000000
C 0.383206 0.470656 0.594729 0.000000
C 0.361665 0.485567 0.599667 0.000000
C 0.355464 0.506630 0.584428 0.000000
C 0.349240 0.524814 0.571658 0.000000
C 0.341344 0.545867 0.557200 0.000000
C 0.328094 0.565924 0.568770 0.000000
C 0.319897 0.586373 0.554504 0.000000
C 0.324324 0.587452 0.528342 0.000000
C 0.314814 0.609040 0.513878 0.000000
C 0.337666 0.567549 0.516782 0.000000
C 0.346134 0.547196 0.530913 0.000000
C 0.346056 0.479019 0.620388 0.000000
C 0.351704 0.458323 0.635349 0.000000
C 0.373161 0.443396 0.630376 0.000000
C 0.379298 0.421289 0.646005 0.000000
H 0.689475 0.620733 0.506348 0.000000
H 0.709282 0.645546 0.516894 0.000000
H 0.676001 0.649166 0.516960 0.000000
H 0.731403 0.577120 0.541493 0.000000
H 0.725050 0.601172 0.519338 0.000000
H 0.698800 0.554913 0.596813 0.000000
H 0.706915 0.552552 0.564681 0.000000
H 0.729099 0.564805 0.586681 0.000000
H 0.686749 0.610218 0.635995 0.000000
H 0.702929 0.582639 0.626533 0.000000
H 0.646621 0.654466 0.603179 0.000000
H 0.673096 0.652741 0.623560 0.000000
H 0.650470 0.628001 0.623019 0.000000
H 0.680637 0.674788 0.547820 0.000000
H 0.670025 0.676703 0.578744 0.000000
H 0.496895 0.338091 0.299777 0.000000
H 0.489039 0.367611 0.313693 0.000000
H 0.497481 0.341913 0.332998 0.000000
H 0.524515 0.402303 0.266038 0.000000
H 0.502827 0.378847 0.275517 0.000000
H 0.570386 0.410297 0.264325 0.000000
H 0.551953 0.427808 0.286061 0.000000
H 0.584206 0.422781 0.292136 0.000000
H 0.610307 0.391542 0.289975 0.000000
H 0.619297 0.367764 0.310632 0.000000
H 0.600931 0.325644 0.332866 0.000000
H 0.608661 0.354781 0.347376 0.000000
H 0.584824 0.335591 0.360534 0.000000
H 0.558112 0.309624 0.340084 0.000000
H 0.526020 0.312361 0.331479 0.000000
H 0.380342 0.666434 0.391915 0.000000
H 0.389218 0.689574 0.414164 0.000000
H 0.363519 0.695396 0.393551 0.000000
H 0.319695 0.633776 0.383775 0.000000
H 0.341303 0.658285 0.377119 0.000000
H 0.289139 0.618378 0.421824 0.000000
H 0.307891 0.599783 0.442530 0.000000
H 0.316896 0.603376 0.410734 0.000000
H 0.298983 0.647018 0.492092 0.000000
H 0.288143 0.627108 0.467665 0.000000
H 0.356846 0.683129 0.499270 0.000000
H 0.323557 0.686550 0.498753 0.000000
H 0.337497 0.657315 0.507101 0.000000
H 0.370284 0.714055 0.440429 0.000000
H 0.358975 0.711601 0.471064 0.000000
H 0.364329 0.367237 0.637458 0.000000
H 0.365179 0.335818 0.648913 0.000000
H 0.383883 0.344743 0.622559 0.000000
H 0.368904 0.397206 0.698613 0.000000
H 0.355670 0.377932 0.675697 0.000000
H 0.433360 0.419825 0.706513 0.000000
H 0.411080 0.404451 0.726162 0.000000
H 0.400944 0.422373 0.699769 0.000000
H 0.470777 0.360623 0.712111 0.000000
H 0.454271 0.387062 0.723946 0.000000
H 0.469733 0.329253 0.651283 0.000000
H 0.468582 0.322293 0.683979 0.000000
H 0.482919 0.350620 0.673065 0.000000
H 0.403831 0.311576 0.640788 0.000000
H 0.435695 0.306719 0.649331 0.000000
H 0.649985 0.434750 0.343423 0.000000
H 0.666744 0.466444 0.374102 0.000000
H 0.684369 0.535975 0.415612 0.000000
H 0.705496 0.566518 0.444233 0.000000
H 0.713565 0.583637 0.484453 0.000000
H 0.667992 0.533236 0.508180 0.000000
H 0.646272 0.502739 0.479513 0.000000
H 0.597329 0.461711 0.416521 0.000000
H 0.580726 0.430508 0.385637 0.000000
H 0.584734 0.405420 0.348159 0.000000
H 0.438263 0.712124 0.481802 0.000000
H 0.482180 0.705665 0.497784 0.000000
H 0.550780 0.616064 0.524501 0.000000
H 0.594772 0.612380 0.540346 0.000000
H 0.634332 0.630247 0.552610 0.000000
H 0.603234 0.693089 0.537027 0.000000
H 0.559016 0.697081 0.521144 0.000000
H 0.472614 0.625039 0.490621 0.000000
H 0.429007 0.631754 0.474628 0.000000
H 0.394451 0.658665 0.462833 0.000000
H 0.514744 0.410193 0.662603 0.000000
H 0.548421 0.439656 0.647644 0.000000
H 0.630280 0.484310 0.669560 0.000000
H 0.666450 0.511669 0.657619 0.000000
H 0.683576 0.549529 0.640955 0.000000
H 0.615034 0.569083 0.631877 0.000000
H 0.578528 0.541749 0.643889 0.000000
H 0.535570 0.487058 0.712643 0.000000
H 0.502263 0.457535 0.727455 0.000000
H 0.478058 0.420236 0.723624 0.000000
H 0.492071 0.481092 0.270523 0.000000
H 0.464882 0.514903 0.288323 0.000000
H 0.433173 0.569642 0.362257 0.000000
H 0.403127 0.602829 0.377135 0.000000
H 0.332071 0.598843 0.366931 0.000000
H 0.340990 0.559924 0.347122 0.000000
H 0.370693 0.526785 0.332290 0.000000
H 0.441845 0.464608 0.348131 0.000000
H 0.469429 0.430819 0.330206 0.000000
H 0.508177 0.439452 0.270235 0.000000
H 0.472900 0.299498 0.396644 0.000000
H 0.459316 0.301183 0.441481 0.000000
H 0.499704 0.293095 0.537942 0.000000
H 0.485950 0.290062 0.582672 0.000000
H 0.458650 0.300458 0.616243 0.000000
H 0.427602 0.344921 0.568939 0.000000
H 0.441197 0.348023 0.523885 0.000000
H 0.527012 0.342459 0.460220 0.000000
H 0.540454 0.340709 0.415072 0.000000
H 0.501978 0.307667 0.363975 0.000000
H 0.405535 0.438615 0.605983 0.000000
H 0.395399 0.475549 0.578893 0.000000
H 0.324395 0.565135 0.588995 0.000000
H 0.309670 0.601754 0.563674 0.000000
H 0.306254 0.624381 0.525306 0.000000
H 0.341157 0.568529 0.496519 0.000000
H 0.356449 0.531839 0.521889 0.000000
H 0.329432 0.490501 0.624324 0.000000
H 0.339661 0.453132 0.651208 0.000000
H 0.397189 0.411500 0.641504 0.000000
