data_B1_PM
_symmetry_space_group_name_H-M   'P 1'
_cell_length_a 42.177461
_cell_length_b 42.177461
_cell_length_c 42.177461
_cell_angle_alpha 90.000000
_cell_angle_beta 90.000000
_cell_angle_gamma 90.000000
_symmetry_Int_Tables_number 1

loop_
_symmetry_equiv_pos_as_xyz
 'x, y, z'

loop_
_atom_site_label
_atom_site_fract_x
_atom_site_fract_y
_atom_site_fract_z
_atom_site_charge
C 0.557642 0.461708 0.389173 0.000000
C 0.527699 0.481478 0.387799 0.000000
C 0.497728 0.466647 0.387383 0.000000
C 0.469833 0.485093 0.388057 0.000000
C 0.472005 0.518454 0.387489 0.000000
C 0.501906 0.533410 0.387900 0.000000
C 0.529695 0.514848 0.387139 0.000000
C 0.561830 0.530822 0.384773 0.000000
N 0.578858 0.539163 0.413874 0.000000
C 0.504111 0.569220 0.389376 0.000000
C 0.442147 0.538387 0.385289 0.000000
N 0.426481 0.548902 0.414434 0.000000
C 0.437684 0.469180 0.389595 0.000000
C 0.495425 0.430809 0.385046 0.000000
N 0.494231 0.411760 0.414099 0.000000
C 0.558008 0.461656 0.610362 0.000000
C 0.528129 0.481536 0.611877 0.000000
C 0.498155 0.466718 0.612636 0.000000
C 0.470252 0.485148 0.612148 0.000000
C 0.472438 0.518508 0.612725 0.000000
C 0.502348 0.533457 0.611965 0.000000
C 0.530175 0.514909 0.612425 0.000000
C 0.562355 0.530869 0.614718 0.000000
N 0.579363 0.539377 0.585640 0.000000
C 0.504534 0.569260 0.610432 0.000000
C 0.442524 0.538376 0.615299 0.000000
N 0.426455 0.548945 0.586346 0.000000
C 0.438101 0.469207 0.610759 0.000000
C 0.495950 0.430889 0.615062 0.000000
N 0.494739 0.411793 0.586047 0.000000
C 0.381473 0.578866 0.500230 0.000000
C 0.395182 0.569765 0.471541 0.000000
C 0.422870 0.551172 0.471359 0.000000
C 0.437902 0.541171 0.441477 0.000000
C 0.436329 0.542057 0.500389 0.000000
C 0.422754 0.551231 0.529350 0.000000
C 0.437782 0.541296 0.559228 0.000000
C 0.395040 0.569783 0.529005 0.000000
C 0.627280 0.563610 0.499355 0.000000
C 0.612851 0.556219 0.528191 0.000000
C 0.583067 0.541228 0.528665 0.000000
C 0.567050 0.533177 0.558592 0.000000
C 0.568281 0.533897 0.499782 0.000000
C 0.582663 0.541217 0.470704 0.000000
C 0.566433 0.533163 0.440910 0.000000
C 0.612445 0.556224 0.470737 0.000000
C 0.491123 0.357751 0.500095 0.000000
C 0.492070 0.374105 0.471353 0.000000
C 0.494119 0.407395 0.471069 0.000000
C 0.495213 0.425420 0.441194 0.000000
C 0.495207 0.423675 0.500064 0.000000
C 0.494309 0.407402 0.529074 0.000000
C 0.495527 0.425437 0.558939 0.000000
C 0.492219 0.374116 0.528822 0.000000
H 0.576681 0.474124 0.401791 0.000000
H 0.566582 0.455933 0.365304 0.000000
H 0.553695 0.439241 0.401641 0.000000
H 0.578178 0.516073 0.370734 0.000000
H 0.559834 0.552912 0.370984 0.000000
H 0.504584 0.579953 0.365554 0.000000
H 0.483913 0.579497 0.402115 0.000000
H 0.525591 0.576964 0.401806 0.000000
H 0.423946 0.525770 0.371449 0.000000
H 0.446809 0.559981 0.371362 0.000000
H 0.420330 0.483899 0.402168 0.000000
H 0.438842 0.446443 0.402140 0.000000
H 0.428072 0.464460 0.365754 0.000000
H 0.474360 0.424112 0.371139 0.000000
H 0.515434 0.421477 0.371099 0.000000
H 0.553957 0.439260 0.597799 0.000000
H 0.577103 0.474040 0.597801 0.000000
H 0.566920 0.455722 0.634204 0.000000
H 0.578725 0.515995 0.628602 0.000000
H 0.560418 0.552861 0.628668 0.000000
H 0.484223 0.579513 0.597851 0.000000
H 0.525911 0.576979 0.597809 0.000000
H 0.505209 0.580019 0.634235 0.000000
H 0.424546 0.525648 0.629327 0.000000
H 0.447302 0.559952 0.629213 0.000000
H 0.420704 0.483892 0.598211 0.000000
H 0.428550 0.464447 0.634614 0.000000
H 0.439283 0.446474 0.598201 0.000000
H 0.474932 0.424161 0.629024 0.000000
H 0.516009 0.421636 0.628991 0.000000
H 0.359957 0.593235 0.500162 0.000000
H 0.384902 0.576749 0.448878 0.000000
H 0.459587 0.526572 0.443880 0.000000
H 0.457834 0.527545 0.500461 0.000000
H 0.459515 0.526786 0.556765 0.000000
H 0.384581 0.576758 0.551591 0.000000
H 0.650385 0.575248 0.499181 0.000000
H 0.624182 0.561836 0.550733 0.000000
H 0.543676 0.521469 0.556234 0.000000
H 0.545093 0.522260 0.499952 0.000000
H 0.542967 0.521654 0.443333 0.000000
H 0.623413 0.561828 0.448015 0.000000
H 0.489517 0.331931 0.500105 0.000000
H 0.491256 0.361626 0.448732 0.000000
H 0.496901 0.451503 0.443661 0.000000
H 0.496815 0.449571 0.500056 0.000000
H 0.497132 0.451522 0.556458 0.000000
H 0.491514 0.361653 0.551455 0.000000
