data_B23_PM
_symmetry_space_group_name_H-M   'P 1'
_cell_length_a 49.325489
_cell_length_b 49.325489
_cell_length_c 49.325489
_cell_angle_alpha 90.000000
_cell_angle_beta 90.000000
_cell_angle_gamma 90.000000
_symmetry_Int_Tables_number 1

loop_
_symmetry_equiv_pos_as_xyz
 'x, y, z'

loop_
_atom_site_label
_atom_site_fract_x
_atom_site_fract_y
_atom_site_fract_z
_atom_site_charge
C 0.419219 0.605540 0.355340 0.000000
C 0.426530 0.578620 0.342508 0.000000
C 0.452397 0.575217 0.330702 0.000000
C 0.460311 0.549857 0.320279 0.000000
C 0.441690 0.528093 0.320402 0.000000
C 0.415876 0.531262 0.332126 0.000000
C 0.408157 0.556802 0.342538 0.000000
C 0.379645 0.560471 0.353772 0.000000
N 0.377975 0.550543 0.381600 0.000000
C 0.396385 0.507656 0.334342 0.000000
C 0.449857 0.501130 0.307758 0.000000
N 0.465854 0.485037 0.326769 0.000000
C 0.488673 0.545305 0.309462 0.000000
C 0.471655 0.599336 0.329444 0.000000
N 0.485656 0.602802 0.355299 0.000000
C 0.387265 0.387686 0.613989 0.000000
C 0.392346 0.370716 0.588919 0.000000
C 0.414762 0.353149 0.587295 0.000000
C 0.420268 0.338791 0.563142 0.000000
C 0.402356 0.341085 0.541059 0.000000
C 0.379851 0.358760 0.542405 0.000000
C 0.374567 0.372954 0.566576 0.000000
C 0.349606 0.390946 0.568947 0.000000
N 0.356501 0.419292 0.563857 0.000000
C 0.362119 0.362472 0.517610 0.000000
C 0.407014 0.324570 0.515407 0.000000
N 0.420531 0.340950 0.494805 0.000000
C 0.445649 0.321596 0.561386 0.000000
C 0.433505 0.349510 0.611518 0.000000
N 0.457380 0.366832 0.608898 0.000000
C 0.470340 0.677938 0.575378 0.000000
C 0.480208 0.661272 0.599207 0.000000
C 0.461206 0.647230 0.615382 0.000000
C 0.469946 0.629980 0.636347 0.000000
C 0.497936 0.627783 0.642024 0.000000
C 0.517046 0.641712 0.626085 0.000000
C 0.508012 0.659038 0.605139 0.000000
C 0.528753 0.675157 0.588961 0.000000
N 0.540666 0.658420 0.567657 0.000000
C 0.547186 0.638019 0.630584 0.000000
C 0.507181 0.610128 0.665594 0.000000
N 0.508418 0.581656 0.657572 0.000000
C 0.449941 0.613299 0.652591 0.000000
C 0.431109 0.650840 0.609684 0.000000
N 0.422671 0.633423 0.587299 0.000000
C 0.664825 0.394489 0.507158 0.000000
C 0.673003 0.421291 0.494630 0.000000
C 0.671804 0.424446 0.466189 0.000000
C 0.677580 0.449675 0.454179 0.000000
C 0.686136 0.471490 0.470646 0.000000
C 0.687307 0.468608 0.499001 0.000000
C 0.681313 0.443231 0.510855 0.000000
C 0.684061 0.439925 0.541415 0.000000
N 0.659933 0.450041 0.555311 0.000000
C 0.694359 0.492358 0.517129 0.000000
C 0.694142 0.498195 0.457368 0.000000
N 0.670215 0.514593 0.451566 0.000000
C 0.674230 0.454003 0.423972 0.000000
C 0.664159 0.400176 0.448693 0.000000
N 0.634773 0.396672 0.447959 0.000000
C 0.406365 0.595660 0.545312 0.000000
C 0.397511 0.577056 0.526187 0.000000
C 0.375378 0.559878 0.531868 0.000000
C 0.362398 0.561898 0.557146 0.000000
C 0.371562 0.580488 0.576298 0.000000
C 0.393581 0.597708 0.570776 0.000000
C 0.403105 0.616821 0.591420 0.000000
N 0.366680 0.540374 0.512600 0.000000
C 0.366832 0.546744 0.484577 0.000000
C 0.375767 0.527493 0.465405 0.000000
C 0.376484 0.533878 0.438051 0.000000
C 0.368454 0.559674 0.428771 0.000000
C 0.369915 0.567017 0.400028 0.000000
C 0.359491 0.578735 0.447975 0.000000
C 0.358514 0.572453 0.475477 0.000000
C 0.360510 0.513644 0.521244 0.000000
C 0.339033 0.499207 0.509329 0.000000
C 0.333707 0.472669 0.517294 0.000000
C 0.349267 0.459909 0.537478 0.000000
C 0.343552 0.431779 0.545093 0.000000
C 0.370552 0.474643 0.549547 0.000000
C 0.376168 0.501008 0.541563 0.000000
C 0.494127 0.452223 0.366760 0.000000
C 0.506471 0.435491 0.385684 0.000000
C 0.496143 0.409321 0.390831 0.000000
C 0.473281 0.400419 0.376324 0.000000
C 0.460893 0.417443 0.357536 0.000000
C 0.471023 0.443576 0.352361 0.000000
C 0.457328 0.461231 0.332798 0.000000
N 0.508259 0.392426 0.410706 0.000000
C 0.536800 0.392766 0.414315 0.000000
C 0.554177 0.392779 0.391737 0.000000
C 0.582137 0.393998 0.395415 0.000000
C 0.593569 0.394855 0.421504 0.000000
C 0.623047 0.396715 0.424763 0.000000
C 0.575993 0.394581 0.444023 0.000000
C 0.548116 0.393634 0.440557 0.000000
C 0.491745 0.377343 0.428781 0.000000
C 0.467177 0.388258 0.438538 0.000000
C 0.451259 0.373718 0.456573 0.000000
C 0.459327 0.347881 0.465712 0.000000
C 0.443282 0.332566 0.485457 0.000000
C 0.483849 0.337143 0.455927 0.000000
C 0.499844 0.351480 0.437615 0.000000
C 0.547297 0.662232 0.493635 0.000000
C 0.556237 0.647730 0.471146 0.000000
C 0.567332 0.621692 0.474439 0.000000
C 0.569498 0.610747 0.500765 0.000000
C 0.560751 0.625443 0.523071 0.000000
C 0.549387 0.651468 0.519941 0.000000
C 0.539207 0.666961 0.543149 0.000000
N 0.575862 0.606472 0.451587 0.000000
C 0.599238 0.589831 0.453446 0.000000
C 0.599278 0.563580 0.442109 0.000000
C 0.621892 0.547082 0.444502 0.000000
C 0.645203 0.556068 0.458342 0.000000
C 0.668874 0.538465 0.461756 0.000000
C 0.645054 0.582272 0.469530 0.000000
C 0.622501 0.599065 0.467072 0.000000
C 0.559836 0.606083 0.427701 0.000000
C 0.572189 0.605471 0.402020 0.000000
C 0.556318 0.604301 0.378704 0.000000
C 0.527856 0.604107 0.380189 0.000000
C 0.511648 0.602324 0.355342 0.000000
C 0.515655 0.604957 0.406008 0.000000
C 0.531293 0.605832 0.429362 0.000000
C 0.560061 0.528131 0.656777 0.000000
C 0.564541 0.501503 0.648604 0.000000
C 0.543982 0.487033 0.635204 0.000000
C 0.518768 0.499701 0.630624 0.000000
C 0.514391 0.526148 0.639075 0.000000
C 0.535009 0.540924 0.652206 0.000000
C 0.531003 0.569140 0.660522 0.000000
N 0.548859 0.460289 0.625851 0.000000
C 0.573721 0.454058 0.612797 0.000000
C 0.586169 0.473060 0.595424 0.000000
C 0.610105 0.466698 0.582120 0.000000
C 0.622396 0.441135 0.585522 0.000000
C 0.647301 0.433728 0.571130 0.000000
C 0.609897 0.422335 0.602928 0.000000
C 0.586000 0.428627 0.616560 0.000000
C 0.527763 0.440767 0.626580 0.000000
C 0.510609 0.438936 0.649267 0.000000
C 0.489406 0.420320 0.649477 0.000000
C 0.484865 0.402878 0.627408 0.000000
C 0.462190 0.383739 0.628047 0.000000
C 0.502313 0.404676 0.604868 0.000000
C 0.523357 0.423293 0.604370 0.000000
H 0.410621 0.619844 0.340462 0.000000
H 0.404298 0.603125 0.371596 0.000000
H 0.437149 0.615019 0.364425 0.000000
H 0.365457 0.548396 0.341460 0.000000
H 0.373047 0.581805 0.351903 0.000000
H 0.382169 0.506885 0.317101 0.000000
H 0.407040 0.488197 0.335007 0.000000
H 0.384438 0.509104 0.353027 0.000000
H 0.462640 0.505117 0.289889 0.000000
H 0.431832 0.490095 0.300298 0.000000
H 0.489824 0.548496 0.287362 0.000000
H 0.503388 0.558985 0.318895 0.000000
H 0.495473 0.524586 0.313764 0.000000
H 0.459773 0.617856 0.325653 0.000000
H 0.485864 0.597287 0.312237 0.000000
H 0.378422 0.407329 0.608516 0.000000
H 0.406049 0.391956 0.625008 0.000000
H 0.373321 0.377574 0.628243 0.000000
H 0.333234 0.383616 0.555509 0.000000
H 0.341705 0.389591 0.589788 0.000000
H 0.374188 0.360804 0.499023 0.000000
H 0.345784 0.347237 0.516643 0.000000
H 0.352533 0.382492 0.517281 0.000000
H 0.418181 0.305696 0.520015 0.000000
H 0.387222 0.318332 0.507157 0.000000
H 0.452684 0.319357 0.540458 0.000000
H 0.462253 0.330986 0.572798 0.000000
H 0.442411 0.301045 0.569572 0.000000
H 0.440562 0.328337 0.612107 0.000000
H 0.422484 0.353028 0.630712 0.000000
H 0.452497 0.668488 0.566085 0.000000
H 0.464778 0.698734 0.581415 0.000000
H 0.485773 0.679548 0.559508 0.000000
H 0.545263 0.681416 0.602634 0.000000
H 0.519693 0.694026 0.580951 0.000000
H 0.555613 0.653638 0.644180 0.000000
H 0.551820 0.618244 0.639535 0.000000
H 0.558163 0.639072 0.611286 0.000000
H 0.492272 0.611810 0.682133 0.000000
H 0.526652 0.617504 0.673881 0.000000
H 0.443713 0.623668 0.671392 0.000000
H 0.431511 0.608946 0.641009 0.000000
H 0.458801 0.593693 0.658171 0.000000
H 0.418978 0.647449 0.628218 0.000000
H 0.427408 0.671986 0.603523 0.000000
H 0.657287 0.397034 0.527881 0.000000
H 0.648446 0.385042 0.495474 0.000000
H 0.681905 0.380088 0.507995 0.000000
H 0.701438 0.452058 0.548443 0.000000
H 0.688667 0.418648 0.546734 0.000000
H 0.716171 0.492997 0.521998 0.000000
H 0.683086 0.491227 0.536251 0.000000
H 0.689102 0.511755 0.507711 0.000000
H 0.709148 0.509104 0.469948 0.000000
H 0.704208 0.493823 0.437922 0.000000
H 0.693274 0.450450 0.412813 0.000000
H 0.667565 0.474779 0.419732 0.000000
H 0.658892 0.440444 0.415384 0.000000
H 0.673044 0.402043 0.428203 0.000000
H 0.672944 0.381741 0.457725 0.000000
H 0.423746 0.608679 0.541196 0.000000
H 0.407808 0.575339 0.506709 0.000000
H 0.345278 0.548674 0.561654 0.000000
H 0.361342 0.581832 0.595900 0.000000
H 0.392365 0.615924 0.611180 0.000000
H 0.382471 0.507617 0.472344 0.000000
H 0.383848 0.519209 0.423247 0.000000
H 0.363808 0.588117 0.395106 0.000000
H 0.353056 0.598813 0.441197 0.000000
H 0.351492 0.587428 0.490128 0.000000
H 0.326803 0.508879 0.493671 0.000000
H 0.317041 0.461605 0.507788 0.000000
H 0.327195 0.421705 0.533363 0.000000
H 0.382902 0.464626 0.564899 0.000000
H 0.392978 0.512069 0.550697 0.000000
H 0.501781 0.472631 0.363083 0.000000
H 0.524066 0.442595 0.397008 0.000000
H 0.465225 0.380191 0.380090 0.000000
H 0.443083 0.410288 0.346487 0.000000
H 0.438705 0.452694 0.323471 0.000000
H 0.545561 0.392075 0.371399 0.000000
H 0.595427 0.394119 0.377698 0.000000
H 0.634788 0.398504 0.405642 0.000000
H 0.584811 0.395736 0.464259 0.000000
H 0.534690 0.393892 0.458109 0.000000
H 0.460950 0.408423 0.431997 0.000000
H 0.432496 0.382299 0.464502 0.000000
H 0.452279 0.313045 0.492143 0.000000
H 0.490424 0.317110 0.462706 0.000000
H 0.518779 0.342871 0.430161 0.000000
H 0.538624 0.682413 0.490801 0.000000
H 0.554549 0.656343 0.450867 0.000000
H 0.577855 0.590460 0.503384 0.000000
H 0.561951 0.616864 0.543406 0.000000
H 0.529723 0.686750 0.538132 0.000000
H 0.581192 0.556250 0.431744 0.000000
H 0.621842 0.526592 0.436214 0.000000
H 0.685661 0.547005 0.474082 0.000000
H 0.662977 0.589636 0.480256 0.000000
H 0.622644 0.619353 0.475823 0.000000
H 0.594235 0.605704 0.400548 0.000000
H 0.566182 0.603723 0.358883 0.000000
H 0.523414 0.600201 0.336269 0.000000
H 0.493594 0.604311 0.407238 0.000000
H 0.521617 0.606024 0.449229 0.000000
H 0.576237 0.539227 0.667059 0.000000
H 0.584045 0.491782 0.652267 0.000000
H 0.502856 0.488615 0.620032 0.000000
H 0.495106 0.536211 0.635157 0.000000
H 0.549005 0.579261 0.669472 0.000000
H 0.576600 0.492730 0.592292 0.000000
H 0.619543 0.481164 0.568329 0.000000
H 0.654613 0.412734 0.574657 0.000000
H 0.619197 0.402460 0.605934 0.000000
H 0.576543 0.413861 0.630006 0.000000
H 0.513943 0.452323 0.666527 0.000000
H 0.476160 0.419138 0.667187 0.000000
H 0.449108 0.384852 0.646328 0.000000
H 0.498541 0.391441 0.587572 0.000000
H 0.536458 0.424806 0.586642 0.000000
