data_B24_PM
_symmetry_space_group_name_H-M   'P 1'
_cell_length_a 51.114123
_cell_length_b 51.114123
_cell_length_c 51.114123
_cell_angle_alpha 90.000000
_cell_angle_beta 90.000000
_cell_angle_gamma 90.000000
_symmetry_Int_Tables_number 1

loop_
_symmetry_equiv_pos_as_xyz
 'x, y, z'

loop_
_atom_site_label
_atom_site_fract_x
_atom_site_fract_y
_atom_site_fract_z
_atom_site_charge
C 0.463145 0.397198 0.308910 0.000000
C 0.487770 0.383267 0.317670 0.000000
C 0.512712 0.392493 0.310546 0.000000
C 0.535484 0.380225 0.320288 0.000000
C 0.533172 0.358025 0.336467 0.000000
C 0.508181 0.348746 0.343862 0.000000
C 0.485643 0.360907 0.333761 0.000000
C 0.458620 0.350377 0.340497 0.000000
N 0.447316 0.365353 0.362035 0.000000
C 0.505800 0.326264 0.363037 0.000000
C 0.557311 0.344165 0.346781 0.000000
N 0.567737 0.352373 0.372343 0.000000
C 0.562036 0.391649 0.313785 0.000000
C 0.515415 0.416004 0.292477 0.000000
N 0.518743 0.440056 0.307582 0.000000
C 0.546862 0.409459 0.695743 0.000000
C 0.523846 0.392848 0.687317 0.000000
C 0.498024 0.399625 0.694111 0.000000
C 0.476727 0.384711 0.684748 0.000000
C 0.481441 0.362437 0.669197 0.000000
C 0.507298 0.355705 0.662038 0.000000
C 0.528394 0.370414 0.671861 0.000000
C 0.556389 0.362401 0.665561 0.000000
N 0.566232 0.377460 0.643377 0.000000
C 0.512203 0.333166 0.643437 0.000000
C 0.458914 0.345593 0.659652 0.000000
N 0.447145 0.351648 0.634090 0.000000
C 0.449077 0.393324 0.691001 0.000000
C 0.492696 0.423284 0.711408 0.000000
N 0.486812 0.446223 0.695369 0.000000
C 0.677657 0.610323 0.552004 0.000000
C 0.672563 0.620599 0.524678 0.000000
C 0.684543 0.608491 0.502895 0.000000
C 0.678463 0.616836 0.477339 0.000000
C 0.661173 0.638061 0.473644 0.000000
C 0.649207 0.650272 0.495232 0.000000
C 0.655623 0.641947 0.520779 0.000000
C 0.644211 0.656369 0.544197 0.000000
N 0.618124 0.646615 0.550675 0.000000
C 0.629187 0.671790 0.491539 0.000000
C 0.655332 0.647359 0.445989 0.000000
N 0.634595 0.631473 0.434417 0.000000
C 0.689646 0.602949 0.453694 0.000000
C 0.703556 0.586164 0.507446 0.000000
N 0.692964 0.559467 0.509249 0.000000
C 0.312339 0.588042 0.444176 0.000000
C 0.316252 0.600431 0.470811 0.000000
C 0.305570 0.588459 0.493336 0.000000
C 0.310957 0.598771 0.518323 0.000000
C 0.326111 0.621768 0.520676 0.000000
C 0.336517 0.633987 0.498305 0.000000
C 0.330876 0.623604 0.473332 0.000000
C 0.340588 0.637781 0.449034 0.000000
N 0.367614 0.630721 0.442943 0.000000
C 0.354098 0.657714 0.500477 0.000000
C 0.331238 0.632977 0.547767 0.000000
N 0.353391 0.619691 0.560053 0.000000
C 0.301334 0.585169 0.542805 0.000000
C 0.288602 0.564313 0.490063 0.000000
N 0.301547 0.538617 0.489133 0.000000
C 0.668631 0.507991 0.515527 0.000000
C 0.656335 0.483730 0.515795 0.000000
C 0.632746 0.479603 0.502103 0.000000
C 0.621791 0.500717 0.488299 0.000000
C 0.633809 0.525177 0.488475 0.000000
C 0.657456 0.529153 0.501911 0.000000
C 0.669535 0.555229 0.501348 0.000000
C 0.619608 0.453754 0.502385 0.000000
C 0.610146 0.442662 0.479110 0.000000
C 0.598137 0.417966 0.479014 0.000000
C 0.595096 0.404615 0.502813 0.000000
C 0.603656 0.415581 0.526523 0.000000
C 0.616308 0.439987 0.525912 0.000000
C 0.597874 0.402444 0.551716 0.000000
C 0.590330 0.417316 0.573729 0.000000
C 0.583270 0.405390 0.597080 0.000000
C 0.583493 0.377960 0.599385 0.000000
C 0.574615 0.364892 0.623360 0.000000
C 0.591482 0.363036 0.577716 0.000000
C 0.598532 0.375050 0.554263 0.000000
C 0.588430 0.406441 0.454281 0.000000
C 0.573893 0.421610 0.436549 0.000000
C 0.564464 0.410727 0.413424 0.000000
C 0.569813 0.384559 0.406945 0.000000
C 0.560029 0.374220 0.381972 0.000000
C 0.584440 0.369315 0.424598 0.000000
C 0.593361 0.380047 0.447952 0.000000
C 0.427464 0.393338 0.407459 0.000000
C 0.418808 0.405178 0.430320 0.000000
C 0.412322 0.390256 0.452636 0.000000
C 0.414423 0.362881 0.450964 0.000000
C 0.423080 0.350964 0.428026 0.000000
C 0.429924 0.365952 0.406017 0.000000
C 0.440206 0.352912 0.382600 0.000000
C 0.404687 0.403425 0.477276 0.000000
C 0.389433 0.426293 0.476881 0.000000
C 0.384250 0.440342 0.499880 0.000000
C 0.394512 0.431098 0.523613 0.000000
C 0.409249 0.407962 0.524690 0.000000
C 0.414039 0.394207 0.501427 0.000000
C 0.420217 0.398802 0.549896 0.000000
C 0.433367 0.416338 0.566508 0.000000
C 0.444075 0.407793 0.590059 0.000000
C 0.441427 0.381631 0.598047 0.000000
C 0.452546 0.373648 0.623311 0.000000
C 0.428164 0.364042 0.581535 0.000000
C 0.417968 0.372476 0.557769 0.000000
C 0.368683 0.464783 0.499221 0.000000
C 0.377496 0.487192 0.512516 0.000000
C 0.363305 0.510432 0.511564 0.000000
C 0.339540 0.511874 0.497825 0.000000
C 0.325134 0.536744 0.497489 0.000000
C 0.330504 0.489405 0.484723 0.000000
C 0.344974 0.466370 0.485219 0.000000
C 0.569685 0.644125 0.406704 0.000000
C 0.547399 0.631664 0.397193 0.000000
C 0.546289 0.604228 0.395529 0.000000
C 0.568441 0.589780 0.403430 0.000000
C 0.590628 0.602175 0.413030 0.000000
C 0.591519 0.629625 0.414944 0.000000
C 0.614234 0.643322 0.425874 0.000000
C 0.522328 0.590789 0.386382 0.000000
C 0.523776 0.568355 0.370579 0.000000
C 0.501057 0.555434 0.362097 0.000000
C 0.476610 0.565396 0.369702 0.000000
C 0.474553 0.587694 0.385591 0.000000
C 0.497592 0.600197 0.393734 0.000000
C 0.448589 0.597101 0.394318 0.000000
C 0.444697 0.606247 0.420067 0.000000
C 0.420223 0.614495 0.428494 0.000000
C 0.398627 0.613931 0.411419 0.000000
C 0.372456 0.622109 0.419904 0.000000
C 0.402421 0.604974 0.385719 0.000000
C 0.426982 0.596713 0.377297 0.000000
C 0.502509 0.531292 0.346151 0.000000
C 0.484296 0.526466 0.326104 0.000000
C 0.484860 0.503123 0.312048 0.000000
C 0.503582 0.483771 0.317572 0.000000
C 0.502863 0.458935 0.303182 0.000000
C 0.522133 0.488676 0.337329 0.000000
C 0.521613 0.512024 0.351234 0.000000
C 0.567680 0.625025 0.566013 0.000000
C 0.544353 0.614335 0.574944 0.000000
C 0.541579 0.605835 0.601067 0.000000
C 0.563106 0.608625 0.617960 0.000000
C 0.586489 0.619437 0.609053 0.000000
C 0.589186 0.627744 0.582996 0.000000
C 0.614231 0.638568 0.574096 0.000000
C 0.516814 0.593986 0.610299 0.000000
C 0.517165 0.572156 0.626956 0.000000
C 0.493897 0.560066 0.635151 0.000000
C 0.469922 0.570335 0.626454 0.000000
C 0.468952 0.592232 0.609873 0.000000
C 0.492572 0.603831 0.601987 0.000000
C 0.443705 0.602861 0.600426 0.000000
C 0.423103 0.586030 0.593078 0.000000
C 0.399859 0.595801 0.582937 0.000000
C 0.396263 0.622931 0.579860 0.000000
C 0.372415 0.633849 0.568177 0.000000
C 0.416515 0.639815 0.587637 0.000000
C 0.439829 0.629968 0.597747 0.000000
C 0.494919 0.536532 0.652028 0.000000
C 0.513611 0.534260 0.672090 0.000000
C 0.515138 0.511659 0.687249 0.000000
C 0.498090 0.490537 0.682907 0.000000
C 0.501005 0.466630 0.698562 0.000000
C 0.479145 0.492833 0.663056 0.000000
C 0.477626 0.515395 0.647979 0.000000
H 0.448225 0.396531 0.324306 0.000000
H 0.454765 0.388281 0.291142 0.000000
H 0.466737 0.417862 0.304610 0.000000
H 0.445708 0.352739 0.323408 0.000000
H 0.459429 0.329180 0.344702 0.000000
H 0.503943 0.307246 0.353045 0.000000
H 0.522814 0.325129 0.376026 0.000000
H 0.488632 0.328562 0.375667 0.000000
H 0.573597 0.345815 0.332761 0.000000
H 0.553681 0.323003 0.348172 0.000000
H 0.577101 0.385481 0.327723 0.000000
H 0.561353 0.413098 0.314319 0.000000
H 0.568679 0.385816 0.294111 0.000000
H 0.498718 0.417152 0.278778 0.000000
H 0.533053 0.413541 0.280360 0.000000
H 0.556052 0.401923 0.713747 0.000000
H 0.541162 0.429751 0.699501 0.000000
H 0.561838 0.409934 0.680389 0.000000
H 0.557708 0.341062 0.662293 0.000000
H 0.568927 0.366789 0.682524 0.000000
H 0.495242 0.329438 0.630877 0.000000
H 0.528679 0.337331 0.630367 0.000000
H 0.516736 0.314853 0.653881 0.000000
H 0.464963 0.324957 0.658815 0.000000
H 0.442791 0.345751 0.673957 0.000000
H 0.434789 0.385153 0.677276 0.000000
H 0.443115 0.387347 0.710849 0.000000
H 0.447399 0.414695 0.689867 0.000000
H 0.475412 0.419308 0.723623 0.000000
H 0.509146 0.426759 0.725009 0.000000
H 0.694056 0.620547 0.561574 0.000000
H 0.660449 0.612619 0.564568 0.000000
H 0.682317 0.589396 0.551807 0.000000
H 0.657740 0.655366 0.561047 0.000000
H 0.642231 0.677242 0.539238 0.000000
H 0.618971 0.670018 0.472800 0.000000
H 0.638198 0.691381 0.492131 0.000000
H 0.614213 0.670932 0.506874 0.000000
H 0.672955 0.644900 0.433857 0.000000
H 0.650628 0.668468 0.445770 0.000000
H 0.706282 0.613725 0.445186 0.000000
H 0.696552 0.583225 0.458444 0.000000
H 0.674726 0.600900 0.438396 0.000000
H 0.714724 0.589512 0.525528 0.000000
H 0.718574 0.585726 0.491991 0.000000
H 0.295121 0.596046 0.433947 0.000000
H 0.329356 0.591193 0.431530 0.000000
H 0.309677 0.566821 0.445673 0.000000
H 0.340193 0.659004 0.452752 0.000000
H 0.327258 0.634276 0.432362 0.000000
H 0.364380 0.658331 0.519258 0.000000
H 0.343030 0.676136 0.498599 0.000000
H 0.369123 0.657445 0.485169 0.000000
H 0.333974 0.654411 0.546879 0.000000
H 0.313964 0.629553 0.560169 0.000000
H 0.283892 0.594840 0.551025 0.000000
H 0.296175 0.564690 0.539161 0.000000
H 0.316546 0.585262 0.557955 0.000000
H 0.273897 0.563187 0.505783 0.000000
H 0.276951 0.565913 0.472046 0.000000
H 0.687068 0.511085 0.525801 0.000000
H 0.665221 0.467427 0.526337 0.000000
H 0.603313 0.498004 0.477960 0.000000
H 0.624792 0.541557 0.478121 0.000000
H 0.656986 0.570996 0.493481 0.000000
H 0.613123 0.452937 0.460640 0.000000
H 0.584530 0.386075 0.503009 0.000000
H 0.623377 0.448653 0.544089 0.000000
H 0.589161 0.438558 0.572043 0.000000
H 0.576825 0.416959 0.613799 0.000000
H 0.575126 0.343185 0.622950 0.000000
H 0.591996 0.341725 0.579260 0.000000
H 0.604804 0.363086 0.537740 0.000000
H 0.569417 0.441917 0.441363 0.000000
H 0.552767 0.422611 0.400054 0.000000
H 0.545633 0.386809 0.371868 0.000000
H 0.588661 0.349039 0.419488 0.000000
H 0.604849 0.368111 0.461424 0.000000
H 0.433036 0.404986 0.390482 0.000000
H 0.417836 0.426471 0.431393 0.000000
H 0.409037 0.350858 0.467755 0.000000
H 0.424684 0.329669 0.427116 0.000000
H 0.441873 0.331298 0.383942 0.000000
H 0.381827 0.433567 0.458313 0.000000
H 0.390241 0.441619 0.541685 0.000000
H 0.426638 0.376989 0.501958 0.000000
H 0.435727 0.436676 0.560475 0.000000
H 0.454671 0.421518 0.602554 0.000000
H 0.465833 0.388032 0.632500 0.000000
H 0.426047 0.343775 0.587844 0.000000
H 0.407606 0.358712 0.545151 0.000000
H 0.396034 0.486474 0.523072 0.000000
H 0.370692 0.527840 0.521525 0.000000
H 0.336085 0.553812 0.505020 0.000000
H 0.311987 0.490516 0.474192 0.000000
H 0.337738 0.449053 0.475035 0.000000
H 0.570229 0.665460 0.407844 0.000000
H 0.530758 0.643291 0.390615 0.000000
H 0.567783 0.568457 0.402679 0.000000
H 0.607538 0.590955 0.419604 0.000000
H 0.612541 0.664960 0.426638 0.000000
H 0.542854 0.561324 0.364098 0.000000
H 0.458911 0.554772 0.364318 0.000000
H 0.496266 0.617434 0.406237 0.000000
H 0.461072 0.606165 0.433757 0.000000
H 0.417178 0.621169 0.448523 0.000000
H 0.356817 0.620302 0.404944 0.000000
H 0.385887 0.604601 0.372180 0.000000
H 0.429611 0.590215 0.357137 0.000000
H 0.469724 0.541317 0.321349 0.000000
H 0.470519 0.499725 0.296570 0.000000
H 0.487254 0.457370 0.288161 0.000000
H 0.536565 0.473590 0.341710 0.000000
H 0.535675 0.515204 0.366977 0.000000
H 0.569895 0.631172 0.545709 0.000000
H 0.528068 0.611793 0.561380 0.000000
H 0.561298 0.602650 0.638370 0.000000
H 0.602970 0.621562 0.622496 0.000000
H 0.629920 0.639284 0.589095 0.000000
H 0.535897 0.563602 0.632533 0.000000
H 0.451701 0.561647 0.633378 0.000000
H 0.492083 0.620675 0.588901 0.000000
H 0.425839 0.564916 0.594643 0.000000
H 0.384199 0.582697 0.576764 0.000000
H 0.372001 0.655494 0.566441 0.000000
H 0.413915 0.660935 0.585650 0.000000
H 0.455194 0.643441 0.603898 0.000000
H 0.526839 0.550538 0.676033 0.000000
H 0.529798 0.510275 0.702741 0.000000
H 0.516850 0.467203 0.713407 0.000000
H 0.466054 0.476365 0.659524 0.000000
H 0.463283 0.516554 0.632213 0.000000
