data_B25_PM
_symmetry_space_group_name_H-M   'P 1'
_cell_length_a 55.989836
_cell_length_b 55.989836
_cell_length_c 55.989836
_cell_angle_alpha 90.000000
_cell_angle_beta 90.000000
_cell_angle_gamma 90.000000
_symmetry_Int_Tables_number 1

loop_
_symmetry_equiv_pos_as_xyz
 'x, y, z'

loop_
_atom_site_label
_atom_site_fract_x
_atom_site_fract_y
_atom_site_fract_z
_atom_site_charge
C 0.438417 0.394551 0.281858 0.000000
C 0.461215 0.380699 0.286326 0.000000
C 0.460571 0.358922 0.299032 0.000000
C 0.481986 0.346997 0.304833 0.000000
C 0.504007 0.356143 0.296673 0.000000
C 0.504765 0.377816 0.283858 0.000000
C 0.483297 0.389740 0.278284 0.000000
C 0.484132 0.412527 0.263459 0.000000
N 0.489844 0.433190 0.278364 0.000000
C 0.528412 0.388692 0.276537 0.000000
C 0.526947 0.342781 0.302061 0.000000
N 0.539875 0.348546 0.324143 0.000000
C 0.481443 0.324731 0.320208 0.000000
C 0.436833 0.348322 0.306666 0.000000
N 0.426935 0.355072 0.329968 0.000000
C 0.670889 0.675387 0.500768 0.000000
C 0.686649 0.653623 0.497747 0.000000
C 0.696504 0.642003 0.517797 0.000000
C 0.709921 0.620862 0.514883 0.000000
C 0.714454 0.611997 0.491744 0.000000
C 0.704562 0.623513 0.471609 0.000000
C 0.691235 0.644639 0.474675 0.000000
C 0.681853 0.658112 0.453020 0.000000
N 0.656929 0.652089 0.448277 0.000000
C 0.707870 0.612986 0.446910 0.000000
C 0.730136 0.590120 0.488499 0.000000
N 0.718938 0.566438 0.487933 0.000000
C 0.719162 0.607562 0.536560 0.000000
C 0.692825 0.652326 0.542581 0.000000
N 0.671821 0.644921 0.556388 0.000000
C 0.290710 0.628995 0.478258 0.000000
C 0.300625 0.638849 0.501428 0.000000
C 0.315404 0.659274 0.501138 0.000000
C 0.325946 0.667570 0.522444 0.000000
C 0.320675 0.656088 0.544229 0.000000
C 0.305929 0.635700 0.544681 0.000000
C 0.295406 0.627478 0.523292 0.000000
C 0.278436 0.606347 0.523819 0.000000
N 0.288310 0.582153 0.521686 0.000000
C 0.301743 0.622497 0.567915 0.000000
C 0.330894 0.666021 0.567359 0.000000
N 0.355243 0.657512 0.571284 0.000000
C 0.343234 0.688352 0.522161 0.000000
C 0.319884 0.672310 0.477802 0.000000
N 0.340231 0.665040 0.462964 0.000000
C 0.503856 0.303319 0.655974 0.000000
C 0.504694 0.323581 0.673882 0.000000
C 0.526840 0.333176 0.681111 0.000000
C 0.527595 0.353100 0.696553 0.000000
C 0.506117 0.362537 0.705681 0.000000
C 0.483912 0.353005 0.698548 0.000000
C 0.483267 0.333127 0.683104 0.000000
C 0.459507 0.322006 0.676295 0.000000
N 0.446888 0.331177 0.655210 0.000000
C 0.461017 0.364520 0.707155 0.000000
C 0.506725 0.383061 0.723503 0.000000
N 0.502932 0.405982 0.711595 0.000000
C 0.551312 0.364508 0.702841 0.000000
C 0.549884 0.321939 0.672296 0.000000
N 0.560523 0.330653 0.649988 0.000000
C 0.623540 0.626787 0.397968 0.000000
C 0.600868 0.619336 0.391129 0.000000
C 0.581350 0.621926 0.406893 0.000000
C 0.558317 0.613882 0.400318 0.000000
C 0.538562 0.606422 0.394909 0.000000
C 0.515614 0.597480 0.389011 0.000000
C 0.513113 0.578968 0.372177 0.000000
C 0.490376 0.569815 0.366569 0.000000
C 0.487944 0.550591 0.350241 0.000000
C 0.485699 0.533531 0.336855 0.000000
C 0.483214 0.513225 0.321983 0.000000
C 0.462451 0.509737 0.308108 0.000000
C 0.460135 0.489452 0.293963 0.000000
C 0.478180 0.471984 0.293314 0.000000
C 0.474866 0.450502 0.278688 0.000000
C 0.498946 0.475512 0.307086 0.000000
C 0.501509 0.495770 0.321075 0.000000
C 0.470030 0.579452 0.377827 0.000000
C 0.472321 0.597820 0.394820 0.000000
C 0.451849 0.606936 0.406784 0.000000
C 0.434528 0.614520 0.417614 0.000000
C 0.414446 0.623053 0.430537 0.000000
C 0.408348 0.612840 0.452760 0.000000
C 0.388673 0.621213 0.465403 0.000000
C 0.374535 0.639889 0.456385 0.000000
C 0.353874 0.648157 0.470251 0.000000
C 0.380621 0.650095 0.434219 0.000000
C 0.400211 0.641868 0.421471 0.000000
C 0.495152 0.606785 0.400317 0.000000
C 0.585320 0.632421 0.429577 0.000000
C 0.608019 0.639634 0.436294 0.000000
C 0.627521 0.636849 0.420630 0.000000
C 0.651749 0.643943 0.427517 0.000000
C 0.546562 0.374308 0.603346 0.000000
C 0.554814 0.383662 0.581864 0.000000
C 0.576357 0.375278 0.571809 0.000000
C 0.584719 0.384967 0.549911 0.000000
C 0.591197 0.393830 0.531081 0.000000
C 0.598172 0.404869 0.509267 0.000000
C 0.589474 0.396286 0.487298 0.000000
C 0.595598 0.407753 0.465771 0.000000
C 0.585907 0.399532 0.443763 0.000000
C 0.576863 0.392855 0.425089 0.000000
C 0.565748 0.385618 0.403469 0.000000
C 0.544299 0.396525 0.395963 0.000000
C 0.533428 0.389463 0.374770 0.000000
C 0.543492 0.371482 0.360417 0.000000
C 0.531514 0.364667 0.338096 0.000000
C 0.564876 0.360589 0.367919 0.000000
C 0.575846 0.367494 0.389037 0.000000
C 0.610684 0.427857 0.466305 0.000000
C 0.619482 0.436632 0.488164 0.000000
C 0.633938 0.457540 0.488653 0.000000
C 0.645638 0.475929 0.489082 0.000000
C 0.658513 0.497800 0.489547 0.000000
C 0.683645 0.498296 0.486856 0.000000
C 0.695999 0.519794 0.487174 0.000000
C 0.683786 0.541590 0.490146 0.000000
C 0.696243 0.564687 0.490419 0.000000
C 0.658833 0.541095 0.492899 0.000000
C 0.646297 0.519637 0.492616 0.000000
C 0.613232 0.425010 0.509560 0.000000
C 0.589238 0.357267 0.583995 0.000000
C 0.580838 0.348039 0.605413 0.000000
C 0.559354 0.356424 0.615466 0.000000
C 0.549879 0.347048 0.638069 0.000000
C 0.422883 0.350252 0.613068 0.000000
C 0.412728 0.360459 0.592879 0.000000
C 0.424424 0.379251 0.580686 0.000000
C 0.414237 0.390088 0.560128 0.000000
C 0.406322 0.400196 0.542511 0.000000
C 0.397956 0.412444 0.521867 0.000000
C 0.402897 0.403435 0.498919 0.000000
C 0.395618 0.416033 0.478413 0.000000
C 0.401491 0.407265 0.455290 0.000000
C 0.407154 0.400037 0.435518 0.000000
C 0.414618 0.392245 0.412548 0.000000
C 0.436667 0.400072 0.403172 0.000000
C 0.444088 0.392583 0.380682 0.000000
C 0.429942 0.377117 0.366869 0.000000
C 0.438597 0.369602 0.343280 0.000000
C 0.407940 0.369277 0.376212 0.000000
C 0.400362 0.376679 0.398628 0.000000
C 0.383114 0.437702 0.481005 0.000000
C 0.377952 0.446841 0.503865 0.000000
C 0.365752 0.469001 0.506422 0.000000
C 0.355669 0.488199 0.508661 0.000000
C 0.344360 0.510782 0.511149 0.000000
C 0.357742 0.532058 0.509259 0.000000
C 0.346593 0.554135 0.511677 0.000000
C 0.321907 0.555796 0.515987 0.000000
C 0.310811 0.579456 0.518366 0.000000
C 0.308549 0.534566 0.517866 0.000000
C 0.319512 0.512463 0.515536 0.000000
C 0.385388 0.434097 0.524223 0.000000
C 0.446659 0.387339 0.589386 0.000000
C 0.456674 0.377020 0.609629 0.000000
C 0.445030 0.358393 0.621792 0.000000
C 0.456327 0.348202 0.643153 0.000000
C 0.497553 0.452387 0.688998 0.000000
C 0.496729 0.474565 0.678034 0.000000
C 0.516091 0.490737 0.680098 0.000000
C 0.515466 0.512950 0.667980 0.000000
C 0.514745 0.531617 0.656724 0.000000
C 0.513942 0.552750 0.642708 0.000000
C 0.534982 0.561829 0.632290 0.000000
C 0.534201 0.582060 0.617384 0.000000
C 0.555374 0.590566 0.606197 0.000000
C 0.573417 0.597600 0.596199 0.000000
C 0.594287 0.605679 0.584234 0.000000
C 0.599595 0.597603 0.560951 0.000000
C 0.620011 0.605628 0.549255 0.000000
C 0.635687 0.621877 0.560235 0.000000
C 0.657035 0.629991 0.547298 0.000000
C 0.630393 0.629908 0.583477 0.000000
C 0.610101 0.622001 0.595304 0.000000
C 0.512209 0.593490 0.613216 0.000000
C 0.491069 0.584774 0.623745 0.000000
C 0.468923 0.596151 0.619112 0.000000
C 0.449820 0.605655 0.614640 0.000000
C 0.427587 0.616224 0.608935 0.000000
C 0.424905 0.629962 0.587850 0.000000
C 0.402989 0.639812 0.581887 0.000000
C 0.383003 0.636514 0.596822 0.000000
C 0.359521 0.646396 0.590837 0.000000
C 0.385696 0.623101 0.617879 0.000000
C 0.407556 0.612988 0.623909 0.000000
C 0.492059 0.564395 0.638459 0.000000
C 0.536074 0.483960 0.693913 0.000000
C 0.536633 0.461756 0.705050 0.000000
C 0.517565 0.445592 0.702653 0.000000
C 0.519022 0.422071 0.714089 0.000000
H 0.441307 0.413804 0.283992 0.000000
H 0.431438 0.391667 0.263682 0.000000
H 0.424296 0.389607 0.294458 0.000000
H 0.498421 0.410850 0.250045 0.000000
H 0.467290 0.414963 0.253459 0.000000
H 0.543050 0.382782 0.288100 0.000000
H 0.527700 0.408230 0.277677 0.000000
H 0.533215 0.383919 0.258042 0.000000
H 0.523637 0.323403 0.302540 0.000000
H 0.539830 0.345078 0.287380 0.000000
H 0.497550 0.323236 0.331243 0.000000
H 0.480222 0.308347 0.309355 0.000000
H 0.466184 0.324779 0.332473 0.000000
H 0.422914 0.352356 0.293370 0.000000
H 0.437856 0.328681 0.306636 0.000000
H 0.662397 0.675843 0.518392 0.000000
H 0.656534 0.675450 0.487443 0.000000
H 0.681076 0.692116 0.498698 0.000000
H 0.693412 0.654980 0.437323 0.000000
H 0.682611 0.677411 0.456750 0.000000
H 0.722489 0.621720 0.437041 0.000000
H 0.691615 0.614930 0.436161 0.000000
H 0.711837 0.593843 0.447623 0.000000
H 0.740598 0.591648 0.471912 0.000000
H 0.743778 0.589386 0.502646 0.000000
H 0.737098 0.613725 0.541847 0.000000
H 0.720336 0.588298 0.533244 0.000000
H 0.707378 0.609916 0.552022 0.000000
H 0.708440 0.648562 0.553930 0.000000
H 0.692172 0.671967 0.541734 0.000000
H 0.302666 0.632617 0.463182 0.000000
H 0.273180 0.636808 0.473868 0.000000
H 0.288406 0.609563 0.479083 0.000000
H 0.264989 0.608048 0.509571 0.000000
H 0.267842 0.606527 0.540388 0.000000
H 0.318098 0.621752 0.578661 0.000000
H 0.296203 0.603984 0.564896 0.000000
H 0.287898 0.631132 0.578919 0.000000
H 0.319003 0.661876 0.582566 0.000000
H 0.331670 0.685631 0.566061 0.000000
H 0.351742 0.690517 0.504668 0.000000
H 0.357560 0.685621 0.535235 0.000000
H 0.334301 0.705359 0.526507 0.000000
H 0.322085 0.691579 0.481072 0.000000
H 0.304008 0.671218 0.466244 0.000000
H 0.519188 0.303772 0.643806 0.000000
H 0.487781 0.304238 0.644827 0.000000
H 0.503874 0.285723 0.664806 0.000000
H 0.461596 0.302660 0.673446 0.000000
H 0.446838 0.323298 0.691285 0.000000
H 0.455683 0.357805 0.724887 0.000000
H 0.446129 0.361173 0.694907 0.000000
H 0.463117 0.383945 0.708512 0.000000
H 0.523500 0.382745 0.733907 0.000000
H 0.492087 0.380682 0.736423 0.000000
H 0.549743 0.383992 0.703972 0.000000
H 0.558204 0.358174 0.720156 0.000000
H 0.564962 0.360787 0.689328 0.000000
H 0.563887 0.323388 0.686023 0.000000
H 0.547504 0.302549 0.669986 0.000000
H 0.638527 0.624651 0.385664 0.000000
H 0.597933 0.611363 0.373617 0.000000
H 0.528896 0.571547 0.363572 0.000000
H 0.448299 0.523092 0.308639 0.000000
H 0.443988 0.486932 0.283308 0.000000
H 0.458269 0.450061 0.267867 0.000000
H 0.512881 0.461920 0.306535 0.000000
H 0.517590 0.498423 0.331727 0.000000
H 0.452420 0.572359 0.373604 0.000000
H 0.419225 0.598333 0.459843 0.000000
H 0.384089 0.613209 0.482596 0.000000
H 0.350844 0.638849 0.487411 0.000000
H 0.369573 0.664579 0.427340 0.000000
H 0.404866 0.649806 0.404312 0.000000
H 0.497024 0.620967 0.413492 0.000000
H 0.570276 0.634543 0.441754 0.000000
H 0.611244 0.647504 0.453810 0.000000
H 0.665598 0.641693 0.413520 0.000000
H 0.529864 0.380927 0.610970 0.000000
H 0.544769 0.397523 0.572598 0.000000
H 0.577664 0.380836 0.486966 0.000000
H 0.536385 0.410496 0.406969 0.000000
H 0.516838 0.398029 0.369097 0.000000
H 0.514830 0.374449 0.334072 0.000000
H 0.572602 0.346649 0.356731 0.000000
H 0.592410 0.359011 0.394769 0.000000
H 0.615325 0.436883 0.449713 0.000000
H 0.693210 0.481498 0.484505 0.000000
H 0.715355 0.520213 0.485083 0.000000
H 0.684707 0.580533 0.492926 0.000000
H 0.649156 0.557878 0.495233 0.000000
H 0.626944 0.519477 0.494714 0.000000
H 0.619857 0.431836 0.526525 0.000000
H 0.605882 0.350717 0.576300 0.000000
H 0.590690 0.334145 0.614853 0.000000
H 0.532867 0.355071 0.644132 0.000000
H 0.413914 0.335800 0.622549 0.000000
H 0.395559 0.354129 0.586219 0.000000
H 0.412715 0.386755 0.497011 0.000000
H 0.447773 0.412044 0.413767 0.000000
H 0.461190 0.398759 0.373603 0.000000
H 0.455950 0.377279 0.337772 0.000000
H 0.397038 0.357260 0.365443 0.000000
H 0.383314 0.370567 0.405782 0.000000
H 0.377564 0.447578 0.465195 0.000000
H 0.376884 0.530969 0.505892 0.000000
H 0.357146 0.570480 0.510196 0.000000
H 0.323167 0.594825 0.517113 0.000000
H 0.289410 0.535919 0.521193 0.000000
H 0.309075 0.496092 0.517019 0.000000
H 0.381619 0.441176 0.541941 0.000000
H 0.455799 0.401795 0.580088 0.000000
H 0.473856 0.383463 0.616265 0.000000
H 0.473652 0.356254 0.648186 0.000000
H 0.482813 0.439793 0.687209 0.000000
H 0.481241 0.479738 0.667426 0.000000
H 0.551939 0.552843 0.635445 0.000000
H 0.587538 0.585020 0.552277 0.000000
H 0.623934 0.599266 0.531231 0.000000
H 0.659487 0.622412 0.529218 0.000000
H 0.642610 0.642499 0.591928 0.000000
H 0.606098 0.628295 0.613290 0.000000
H 0.511489 0.609109 0.601653 0.000000
H 0.440345 0.632541 0.576271 0.000000
H 0.400794 0.650210 0.565572 0.000000
H 0.345372 0.643505 0.604408 0.000000
H 0.370309 0.620481 0.629583 0.000000
H 0.409445 0.602481 0.640185 0.000000
H 0.475729 0.557448 0.646418 0.000000
H 0.551044 0.496277 0.695672 0.000000
H 0.552199 0.456696 0.715669 0.000000
H 0.535214 0.418932 0.725079 0.000000
