data_B26_PM
_symmetry_space_group_name_H-M   'P 1'
_cell_length_a 61.310523
_cell_length_b 61.310523
_cell_length_c 61.310523
_cell_angle_alpha 90.000000
_cell_angle_beta 90.000000
_cell_angle_gamma 90.000000
_symmetry_Int_Tables_number 1

loop_
_symmetry_equiv_pos_as_xyz
 'x, y, z'

loop_
_atom_site_label
_atom_site_fract_x
_atom_site_fract_y
_atom_site_fract_z
_atom_site_charge
C 0.434260 0.727964 0.408643 0.000000
C 0.450529 0.736715 0.425044 0.000000
C 0.472728 0.738644 0.419377 0.000000
C 0.488204 0.745384 0.434997 0.000000
C 0.481269 0.750967 0.456214 0.000000
C 0.459089 0.748962 0.462051 0.000000
C 0.443665 0.742495 0.446259 0.000000
C 0.419683 0.741124 0.452212 0.000000
N 0.411034 0.720075 0.459695 0.000000
C 0.451953 0.753183 0.485335 0.000000
C 0.497866 0.758388 0.472979 0.000000
N 0.508684 0.741636 0.486285 0.000000
C 0.512144 0.746054 0.428951 0.000000
C 0.480219 0.733214 0.396331 0.000000
N 0.489733 0.711374 0.395482 0.000000
C 0.400731 0.430272 0.728183 0.000000
C 0.416690 0.447009 0.736879 0.000000
C 0.438110 0.440683 0.742448 0.000000
C 0.453502 0.456459 0.749035 0.000000
C 0.447143 0.478510 0.750949 0.000000
C 0.425756 0.484903 0.745419 0.000000
C 0.410385 0.469012 0.739007 0.000000
C 0.387175 0.475881 0.733970 0.000000
N 0.381980 0.482851 0.711656 0.000000
C 0.419388 0.508766 0.745901 0.000000
C 0.463440 0.495508 0.758544 0.000000
N 0.476757 0.506733 0.742078 0.000000
C 0.476897 0.449895 0.753470 0.000000
C 0.444512 0.416862 0.740708 0.000000
N 0.452457 0.408831 0.719575 0.000000
C 0.754434 0.487372 0.462646 0.000000
C 0.749924 0.463713 0.468190 0.000000
C 0.751076 0.456545 0.490026 0.000000
C 0.745301 0.434937 0.495410 0.000000
C 0.739256 0.420302 0.478738 0.000000
C 0.738161 0.427292 0.456865 0.000000
C 0.744086 0.448903 0.451566 0.000000
C 0.743843 0.456430 0.428003 0.000000
N 0.723355 0.464763 0.418829 0.000000
C 0.730189 0.411866 0.439270 0.000000
C 0.733557 0.396879 0.484639 0.000000
N 0.711465 0.395695 0.493490 0.000000
C 0.745096 0.427456 0.518931 0.000000
C 0.757977 0.472254 0.507859 0.000000
N 0.741028 0.485381 0.518604 0.000000
C 0.341509 0.394510 0.326211 0.000000
C 0.348552 0.374213 0.338373 0.000000
C 0.336833 0.366832 0.356730 0.000000
C 0.344251 0.348555 0.368625 0.000000
C 0.362768 0.336971 0.361420 0.000000
C 0.374765 0.344484 0.343245 0.000000
C 0.367324 0.362800 0.331510 0.000000
C 0.379569 0.370465 0.311288 0.000000
N 0.393284 0.389314 0.316350 0.000000
C 0.395777 0.333229 0.336726 0.000000
C 0.369911 0.316456 0.373316 0.000000
N 0.386038 0.318343 0.390934 0.000000
C 0.332563 0.341682 0.389282 0.000000
C 0.316364 0.378588 0.364155 0.000000
N 0.318466 0.395804 0.380697 0.000000
C 0.486244 0.503394 0.683195 0.000000
C 0.498400 0.512580 0.666347 0.000000
C 0.512604 0.530159 0.670348 0.000000
C 0.514132 0.538174 0.691867 0.000000
C 0.502144 0.528909 0.708701 0.000000
C 0.487974 0.511307 0.704629 0.000000
C 0.475103 0.501060 0.722022 0.000000
C 0.525524 0.539902 0.652473 0.000000
C 0.528458 0.562609 0.650850 0.000000
C 0.540262 0.571730 0.633717 0.000000
C 0.549855 0.558522 0.617597 0.000000
C 0.547189 0.535803 0.619386 0.000000
C 0.535203 0.526701 0.636391 0.000000
C 0.562022 0.568070 0.599019 0.000000
C 0.554165 0.586723 0.588314 0.000000
C 0.565000 0.595421 0.570103 0.000000
C 0.584120 0.585191 0.562756 0.000000
C 0.592387 0.566525 0.573130 0.000000
C 0.581191 0.558209 0.591289 0.000000
C 0.612035 0.555327 0.564591 0.000000
C 0.627936 0.546509 0.578587 0.000000
C 0.646000 0.535439 0.570339 0.000000
C 0.648892 0.532600 0.547746 0.000000
C 0.633089 0.541644 0.533761 0.000000
C 0.615104 0.552776 0.541992 0.000000
C 0.667623 0.520248 0.538856 0.000000
C 0.688690 0.522087 0.547963 0.000000
C 0.706203 0.510462 0.539465 0.000000
C 0.703275 0.496388 0.521559 0.000000
C 0.721246 0.483753 0.512012 0.000000
C 0.682316 0.494429 0.512500 0.000000
C 0.664816 0.506196 0.520927 0.000000
C 0.556089 0.614546 0.558323 0.000000
C 0.569796 0.631035 0.550157 0.000000
C 0.561336 0.648623 0.538526 0.000000
C 0.538825 0.650440 0.534417 0.000000
C 0.525115 0.634019 0.542747 0.000000
C 0.533553 0.616521 0.554499 0.000000
C 0.529829 0.668787 0.521614 0.000000
C 0.538178 0.690126 0.523800 0.000000
C 0.529613 0.707360 0.511837 0.000000
C 0.512405 0.703911 0.497039 0.000000
C 0.502836 0.721672 0.484143 0.000000
C 0.504121 0.682674 0.494700 0.000000
C 0.512619 0.665432 0.506797 0.000000
C 0.323608 0.428374 0.414866 0.000000
C 0.327503 0.444202 0.430608 0.000000
C 0.348877 0.451294 0.435375 0.000000
C 0.366214 0.441724 0.423768 0.000000
C 0.362330 0.425740 0.408083 0.000000
C 0.341000 0.418843 0.403310 0.000000
C 0.337546 0.401903 0.386712 0.000000
C 0.352978 0.468237 0.452063 0.000000
C 0.340946 0.468919 0.471606 0.000000
C 0.345200 0.484581 0.487519 0.000000
C 0.361552 0.500383 0.484496 0.000000
C 0.373344 0.499924 0.464818 0.000000
C 0.369214 0.484166 0.449002 0.000000
C 0.366734 0.516730 0.501519 0.000000
C 0.371508 0.538393 0.495827 0.000000
C 0.377581 0.553795 0.511645 0.000000
C 0.378591 0.547218 0.533547 0.000000
C 0.373872 0.525691 0.539753 0.000000
C 0.367886 0.510640 0.523566 0.000000
C 0.376129 0.518857 0.562821 0.000000
C 0.369315 0.532390 0.580049 0.000000
C 0.372122 0.526104 0.601698 0.000000
C 0.382098 0.506133 0.607050 0.000000
C 0.388772 0.492539 0.589806 0.000000
C 0.385751 0.498728 0.568168 0.000000
C 0.385663 0.499746 0.630017 0.000000
C 0.405034 0.489256 0.636455 0.000000
C 0.408430 0.483389 0.658135 0.000000
C 0.392514 0.487582 0.674072 0.000000
C 0.396518 0.481017 0.696735 0.000000
C 0.373101 0.498045 0.667715 0.000000
C 0.369817 0.504076 0.646136 0.000000
C 0.383693 0.576257 0.505172 0.000000
C 0.372097 0.587647 0.488981 0.000000
C 0.378411 0.608494 0.482529 0.000000
C 0.396696 0.618780 0.491866 0.000000
C 0.408184 0.607421 0.508163 0.000000
C 0.401762 0.586660 0.514739 0.000000
C 0.403680 0.640708 0.484659 0.000000
C 0.425921 0.645859 0.482283 0.000000
C 0.432395 0.666466 0.475224 0.000000
C 0.416924 0.682701 0.470490 0.000000
C 0.424276 0.704230 0.463010 0.000000
C 0.394667 0.677656 0.472952 0.000000
C 0.388213 0.657060 0.479816 0.000000
C 0.451931 0.399769 0.320350 0.000000
C 0.467095 0.415605 0.326325 0.000000
C 0.460416 0.436994 0.331241 0.000000
C 0.437989 0.441950 0.329781 0.000000
C 0.422802 0.426070 0.324227 0.000000
C 0.429549 0.404639 0.319507 0.000000
C 0.413967 0.387236 0.314193 0.000000
C 0.476413 0.453658 0.338185 0.000000
C 0.475469 0.475220 0.330387 0.000000
C 0.490418 0.490867 0.337289 0.000000
C 0.506824 0.485811 0.352550 0.000000
C 0.507714 0.464205 0.360306 0.000000
C 0.492984 0.448465 0.353183 0.000000
C 0.522330 0.502566 0.360537 0.000000
C 0.516261 0.524647 0.361724 0.000000
C 0.530627 0.540579 0.369742 0.000000
C 0.551422 0.534132 0.376816 0.000000
C 0.557951 0.512215 0.375944 0.000000
C 0.543328 0.496693 0.367618 0.000000
C 0.579832 0.505581 0.383751 0.000000
C 0.582573 0.486599 0.396352 0.000000
C 0.603049 0.480431 0.403997 0.000000
C 0.621737 0.492875 0.399197 0.000000
C 0.619001 0.511789 0.386492 0.000000
C 0.598477 0.518075 0.379043 0.000000
C 0.643466 0.486191 0.407268 0.000000
C 0.646034 0.477563 0.428373 0.000000
C 0.666450 0.470956 0.435843 0.000000
C 0.684983 0.472591 0.422470 0.000000
C 0.706122 0.464877 0.430678 0.000000
C 0.682537 0.481375 0.401396 0.000000
C 0.662195 0.488088 0.394011 0.000000
C 0.523714 0.563673 0.371390 0.000000
C 0.528589 0.576179 0.389993 0.000000
C 0.521847 0.597797 0.391696 0.000000
C 0.510084 0.608008 0.374807 0.000000
C 0.505396 0.595492 0.356121 0.000000
C 0.511964 0.573813 0.354490 0.000000
C 0.502787 0.630917 0.376750 0.000000
C 0.483574 0.638153 0.366458 0.000000
C 0.476702 0.659710 0.368380 0.000000
C 0.488606 0.674788 0.380872 0.000000
C 0.480758 0.697299 0.382905 0.000000
C 0.507817 0.667682 0.391239 0.000000
C 0.514776 0.646247 0.389091 0.000000
C 0.413868 0.361943 0.420790 0.000000
C 0.428764 0.365651 0.437529 0.000000
C 0.438882 0.348129 0.448360 0.000000
C 0.433527 0.326749 0.441725 0.000000
C 0.418554 0.323038 0.425128 0.000000
C 0.408458 0.340627 0.414368 0.000000
C 0.392505 0.337344 0.396804 0.000000
C 0.454576 0.352161 0.466223 0.000000
C 0.450925 0.368963 0.481431 0.000000
C 0.465766 0.373166 0.498083 0.000000
C 0.485009 0.360856 0.500174 0.000000
C 0.488585 0.343907 0.485124 0.000000
C 0.473629 0.339573 0.468572 0.000000
C 0.501156 0.366189 0.517335 0.000000
C 0.494405 0.372331 0.538343 0.000000
C 0.509489 0.378837 0.554307 0.000000
C 0.531752 0.379237 0.548882 0.000000
C 0.539002 0.372936 0.528088 0.000000
C 0.523551 0.366287 0.512557 0.000000
C 0.562444 0.373825 0.522288 0.000000
C 0.572457 0.356934 0.510420 0.000000
C 0.594368 0.358101 0.504517 0.000000
C 0.607238 0.376321 0.510004 0.000000
C 0.597148 0.393189 0.521902 0.000000
C 0.575316 0.391922 0.528009 0.000000
C 0.630416 0.377851 0.503484 0.000000
C 0.645656 0.389309 0.516428 0.000000
C 0.667340 0.391226 0.510206 0.000000
C 0.674804 0.381544 0.490773 0.000000
C 0.697545 0.383638 0.483604 0.000000
C 0.659842 0.369832 0.477973 0.000000
C 0.638039 0.368126 0.484133 0.000000
C 0.501956 0.385121 0.576408 0.000000
C 0.511021 0.403086 0.587443 0.000000
C 0.503671 0.409132 0.608083 0.000000
C 0.487073 0.397367 0.618721 0.000000
C 0.478129 0.379297 0.607741 0.000000
C 0.485340 0.373380 0.587026 0.000000
C 0.479214 0.403754 0.640626 0.000000
C 0.474032 0.387832 0.656430 0.000000
C 0.466591 0.393670 0.677009 0.000000
C 0.463889 0.415770 0.682593 0.000000
C 0.455926 0.422508 0.704140 0.000000
C 0.468953 0.431697 0.666919 0.000000
C 0.476586 0.425831 0.646334 0.000000
H 0.441102 0.714170 0.399533 0.000000
H 0.419384 0.721978 0.416496 0.000000
H 0.429442 0.740419 0.396618 0.000000
H 0.409511 0.746112 0.438283 0.000000
H 0.415683 0.753066 0.465016 0.000000
H 0.447219 0.770335 0.487907 0.000000
H 0.437942 0.743035 0.489867 0.000000
H 0.464984 0.749436 0.496990 0.000000
H 0.490433 0.769951 0.484539 0.000000
H 0.510936 0.767842 0.465105 0.000000
H 0.522678 0.743967 0.443236 0.000000
H 0.516152 0.732910 0.417514 0.000000
H 0.516580 0.761670 0.421210 0.000000
H 0.466726 0.735244 0.384565 0.000000
H 0.493035 0.744837 0.391493 0.000000
H 0.388637 0.437698 0.717311 0.000000
H 0.409042 0.417557 0.718746 0.000000
H 0.391741 0.422098 0.741436 0.000000
H 0.382235 0.489371 0.744738 0.000000
H 0.375687 0.462653 0.737946 0.000000
H 0.406888 0.512487 0.733671 0.000000
H 0.412838 0.513602 0.761932 0.000000
H 0.433349 0.519376 0.742409 0.000000
H 0.474986 0.488324 0.770281 0.000000
H 0.455114 0.508372 0.767899 0.000000
H 0.488304 0.463100 0.749563 0.000000
H 0.481781 0.435794 0.743616 0.000000
H 0.479458 0.445526 0.770721 0.000000
H 0.457198 0.412794 0.752757 0.000000
H 0.430654 0.406364 0.745182 0.000000
H 0.750675 0.498201 0.476361 0.000000
H 0.771654 0.490060 0.458231 0.000000
H 0.744464 0.492887 0.448855 0.000000
H 0.756104 0.469287 0.425436 0.000000
H 0.749169 0.443143 0.417141 0.000000
H 0.725071 0.420560 0.424539 0.000000
H 0.742810 0.400005 0.434486 0.000000
H 0.715989 0.402519 0.444867 0.000000
H 0.735860 0.385923 0.470525 0.000000
H 0.744799 0.391189 0.497448 0.000000
H 0.742373 0.441061 0.530198 0.000000
H 0.760641 0.419669 0.523543 0.000000
H 0.731973 0.415644 0.521718 0.000000
H 0.766638 0.463500 0.520916 0.000000
H 0.770123 0.483910 0.501590 0.000000
H 0.331135 0.390496 0.312077 0.000000
H 0.332220 0.405646 0.336662 0.000000
H 0.355715 0.403556 0.320211 0.000000
H 0.367646 0.375669 0.298901 0.000000
H 0.388994 0.356939 0.304033 0.000000
H 0.408407 0.345164 0.332475 0.000000
H 0.402431 0.323299 0.349990 0.000000
H 0.393576 0.322508 0.322471 0.000000
H 0.376550 0.304528 0.361648 0.000000
H 0.355675 0.308118 0.380419 0.000000
H 0.343732 0.333934 0.400902 0.000000
H 0.325281 0.355688 0.397671 0.000000
H 0.319338 0.329972 0.385914 0.000000
H 0.304516 0.366794 0.370711 0.000000
H 0.307889 0.386002 0.350165 0.000000
H 0.475102 0.489914 0.679755 0.000000
H 0.496555 0.506435 0.649751 0.000000
H 0.525316 0.551569 0.695366 0.000000
H 0.503563 0.534956 0.725364 0.000000
H 0.463867 0.487993 0.716651 0.000000
H 0.520991 0.573276 0.662981 0.000000
H 0.542283 0.589394 0.632896 0.000000
H 0.554279 0.525174 0.606999 0.000000
H 0.533508 0.509015 0.637419 0.000000
H 0.539203 0.594433 0.594077 0.000000
H 0.592572 0.591729 0.548532 0.000000
H 0.587359 0.543614 0.599381 0.000000
H 0.626165 0.548478 0.596188 0.000000
H 0.657883 0.528488 0.581617 0.000000
H 0.635066 0.540048 0.516148 0.000000
H 0.602953 0.559277 0.530732 0.000000
H 0.691311 0.533189 0.561625 0.000000
H 0.722502 0.512102 0.546392 0.000000
H 0.716521 0.472692 0.498567 0.000000
H 0.679785 0.483455 0.498690 0.000000
H 0.648615 0.504148 0.513866 0.000000
H 0.587322 0.630113 0.553114 0.000000
H 0.572418 0.660990 0.532127 0.000000
H 0.507543 0.635154 0.540180 0.000000
H 0.522538 0.603886 0.560480 0.000000
H 0.551260 0.693194 0.535469 0.000000
H 0.535937 0.723871 0.513768 0.000000
H 0.490052 0.716638 0.472455 0.000000
H 0.490926 0.679701 0.483096 0.000000
H 0.506202 0.649008 0.504415 0.000000
H 0.307041 0.423113 0.411097 0.000000
H 0.313769 0.451653 0.439131 0.000000
H 0.382938 0.446562 0.427442 0.000000
H 0.376026 0.418371 0.399378 0.000000
H 0.352563 0.394686 0.379785 0.000000
H 0.328363 0.456685 0.474556 0.000000
H 0.335589 0.484687 0.502500 0.000000
H 0.386260 0.511860 0.462097 0.000000
H 0.378582 0.484319 0.433871 0.000000
H 0.370859 0.543254 0.478726 0.000000
H 0.383473 0.558982 0.545968 0.000000
H 0.364394 0.493805 0.528142 0.000000
H 0.361541 0.547976 0.576387 0.000000
H 0.366949 0.537067 0.614725 0.000000
H 0.396219 0.476793 0.593453 0.000000
H 0.391370 0.487992 0.555136 0.000000
H 0.417722 0.486135 0.624379 0.000000
H 0.423646 0.475400 0.662868 0.000000
H 0.412947 0.474341 0.700093 0.000000
H 0.360717 0.501171 0.680089 0.000000
H 0.354527 0.511866 0.641417 0.000000
H 0.357837 0.580089 0.481476 0.000000
H 0.369288 0.616817 0.469717 0.000000
H 0.422222 0.615114 0.515939 0.000000
H 0.411190 0.578113 0.527179 0.000000
H 0.438188 0.633373 0.485476 0.000000
H 0.449726 0.670080 0.473184 0.000000
H 0.442048 0.705853 0.460343 0.000000
H 0.382676 0.690305 0.469417 0.000000
H 0.370897 0.653533 0.481932 0.000000
H 0.457454 0.383288 0.316424 0.000000
H 0.484405 0.411518 0.326853 0.000000
H 0.432475 0.458403 0.333745 0.000000
H 0.405433 0.429843 0.323647 0.000000
H 0.421373 0.371773 0.308388 0.000000
H 0.463144 0.479605 0.318318 0.000000
H 0.489588 0.507236 0.330373 0.000000
H 0.519730 0.459787 0.372651 0.000000
H 0.493789 0.432027 0.359954 0.000000
H 0.499725 0.529473 0.357298 0.000000
H 0.562638 0.546351 0.383257 0.000000
H 0.548735 0.479824 0.366047 0.000000
H 0.568344 0.476730 0.400466 0.000000
H 0.604692 0.465519 0.413569 0.000000
H 0.633151 0.521891 0.382693 0.000000
H 0.596879 0.532761 0.369115 0.000000
H 0.631907 0.476375 0.439125 0.000000
H 0.668133 0.464340 0.452307 0.000000
H 0.706144 0.458949 0.447720 0.000000
H 0.696904 0.482538 0.390978 0.000000
H 0.660513 0.494434 0.377466 0.000000
H 0.537197 0.568598 0.403599 0.000000
H 0.525211 0.606722 0.406711 0.000000
H 0.496946 0.603014 0.342392 0.000000
H 0.508467 0.564692 0.339611 0.000000
H 0.473644 0.626635 0.357236 0.000000
H 0.461681 0.664936 0.360342 0.000000
H 0.466333 0.701453 0.372790 0.000000
H 0.517159 0.679418 0.400791 0.000000
H 0.530029 0.641269 0.396773 0.000000
H 0.406272 0.375755 0.412474 0.000000
H 0.432967 0.382340 0.442039 0.000000
H 0.440907 0.312924 0.450164 0.000000
H 0.414225 0.306498 0.420231 0.000000
H 0.386385 0.352405 0.388972 0.000000
H 0.436090 0.378722 0.480273 0.000000
H 0.462661 0.386537 0.509408 0.000000
H 0.503240 0.333905 0.486538 0.000000
H 0.476966 0.326502 0.456962 0.000000
H 0.477055 0.372263 0.542284 0.000000
H 0.543701 0.383762 0.561268 0.000000
H 0.528974 0.362338 0.496077 0.000000
H 0.563007 0.342445 0.506230 0.000000
H 0.601758 0.344381 0.495934 0.000000
H 0.606392 0.407849 0.525913 0.000000
H 0.567849 0.405516 0.536738 0.000000
H 0.640387 0.396482 0.531831 0.000000
H 0.678978 0.400143 0.520271 0.000000
H 0.701980 0.374154 0.468838 0.000000
H 0.665332 0.362283 0.462794 0.000000
H 0.626635 0.359544 0.473516 0.000000
H 0.523799 0.412645 0.579562 0.000000
H 0.511159 0.423036 0.616291 0.000000
H 0.465066 0.369972 0.615426 0.000000
H 0.478169 0.359207 0.578998 0.000000
H 0.476349 0.370631 0.652495 0.000000
H 0.462819 0.381317 0.689233 0.000000
H 0.453084 0.440215 0.706174 0.000000
H 0.466828 0.448920 0.670991 0.000000
H 0.480089 0.438456 0.634293 0.000000
