data_B2_PM
_symmetry_space_group_name_H-M   'P 1'
_cell_length_a 43.697741
_cell_length_b 43.697741
_cell_length_c 43.697741
_cell_angle_alpha 90.000000
_cell_angle_beta 90.000000
_cell_angle_gamma 90.000000
_symmetry_Int_Tables_number 1

loop_
_symmetry_equiv_pos_as_xyz
 'x, y, z'

loop_
_atom_site_label
_atom_site_fract_x
_atom_site_fract_y
_atom_site_fract_z
_atom_site_charge
C 0.392795 0.557036 0.536524 0.000000
C 0.391322 0.528030 0.517601 0.000000
C 0.390802 0.529701 0.485369 0.000000
C 0.391291 0.502702 0.467670 0.000000
C 0.390637 0.473951 0.482325 0.000000
C 0.391100 0.472130 0.514555 0.000000
C 0.390611 0.499208 0.532112 0.000000
C 0.388732 0.497313 0.566703 0.000000
N 0.417111 0.495986 0.584477 0.000000
C 0.392232 0.441250 0.530246 0.000000
C 0.388711 0.444931 0.463397 0.000000
N 0.417029 0.429868 0.453644 0.000000
C 0.392640 0.504590 0.433077 0.000000
C 0.389174 0.560609 0.469678 0.000000
N 0.417699 0.576314 0.461713 0.000000
C 0.607565 0.554782 0.537641 0.000000
C 0.608825 0.525925 0.518493 0.000000
C 0.609391 0.527852 0.486265 0.000000
C 0.608778 0.500989 0.468377 0.000000
C 0.609215 0.472124 0.482818 0.000000
C 0.608583 0.470049 0.515025 0.000000
C 0.609269 0.496989 0.532786 0.000000
C 0.611179 0.494824 0.567381 0.000000
N 0.582821 0.493842 0.585223 0.000000
C 0.606944 0.439068 0.530458 0.000000
C 0.611112 0.443256 0.463645 0.000000
N 0.582754 0.428593 0.453399 0.000000
C 0.607460 0.503068 0.433795 0.000000
C 0.611513 0.558872 0.470826 0.000000
N 0.583324 0.575082 0.462637 0.000000
C 0.471832 0.493068 0.620231 0.000000
C 0.499575 0.491648 0.635834 0.000000
Br 0.499297 0.488836 0.679617 0.000000
C 0.527515 0.492214 0.620540 0.000000
C 0.527821 0.494285 0.588442 0.000000
C 0.556955 0.494959 0.571523 0.000000
C 0.500000 0.495755 0.572484 0.000000
C 0.471980 0.495152 0.588118 0.000000
C 0.443044 0.496577 0.570891 0.000000
C 0.527377 0.399584 0.433154 0.000000
C 0.499364 0.387096 0.424507 0.000000
Br 0.498888 0.350919 0.399694 0.000000
C 0.471688 0.400168 0.433343 0.000000
C 0.471923 0.426727 0.451496 0.000000
C 0.443008 0.441154 0.461090 0.000000
C 0.500004 0.439500 0.460335 0.000000
C 0.527766 0.426121 0.451333 0.000000
C 0.556885 0.440028 0.460987 0.000000
C 0.528689 0.607231 0.446058 0.000000
C 0.500986 0.621345 0.439074 0.000000
Br 0.501436 0.660604 0.419497 0.000000
C 0.472994 0.607735 0.445867 0.000000
C 0.472637 0.578903 0.460138 0.000000
C 0.443485 0.563815 0.467724 0.000000
C 0.500397 0.564496 0.467315 0.000000
C 0.528465 0.578440 0.460409 0.000000
C 0.557303 0.562898 0.468276 0.000000
H 0.369796 0.565769 0.542102 0.000000
H 0.404995 0.575331 0.524440 0.000000
H 0.404862 0.553347 0.558209 0.000000
H 0.375236 0.477181 0.573614 0.000000
H 0.375674 0.516838 0.575834 0.000000
H 0.369122 0.432264 0.534886 0.000000
H 0.404314 0.442456 0.552202 0.000000
H 0.404216 0.424189 0.516290 0.000000
H 0.375464 0.449123 0.442369 0.000000
H 0.375346 0.427408 0.475619 0.000000
H 0.369598 0.505427 0.422844 0.000000
H 0.404497 0.484820 0.423179 0.000000
H 0.404972 0.525046 0.425393 0.000000
H 0.375958 0.558856 0.448291 0.000000
H 0.375960 0.576843 0.483709 0.000000
H 0.595420 0.551011 0.559270 0.000000
H 0.630628 0.563252 0.543363 0.000000
H 0.595560 0.573295 0.525697 0.000000
H 0.624530 0.514118 0.576586 0.000000
H 0.624419 0.474470 0.574131 0.000000
H 0.629887 0.429627 0.535021 0.000000
H 0.594660 0.422350 0.516341 0.000000
H 0.594870 0.440305 0.552416 0.000000
H 0.624110 0.425479 0.475902 0.000000
H 0.624691 0.447498 0.442839 0.000000
H 0.595718 0.523901 0.426207 0.000000
H 0.630504 0.503268 0.423534 0.000000
H 0.595028 0.483675 0.423848 0.000000
H 0.624950 0.557100 0.449574 0.000000
H 0.624811 0.574804 0.485125 0.000000
H 0.449979 0.492576 0.632197 0.000000
H 0.549202 0.491114 0.632770 0.000000
H 0.555002 0.496578 0.546319 0.000000
H 0.500169 0.497401 0.547518 0.000000
H 0.445208 0.498104 0.545699 0.000000
H 0.549022 0.389354 0.426235 0.000000
H 0.449787 0.390396 0.426570 0.000000
H 0.445224 0.462223 0.474982 0.000000
H 0.500279 0.460167 0.474439 0.000000
H 0.554924 0.460920 0.475179 0.000000
H 0.550578 0.617887 0.440740 0.000000
H 0.451334 0.618775 0.440400 0.000000
H 0.445355 0.541176 0.478929 0.000000
H 0.500150 0.542093 0.478457 0.000000
H 0.554997 0.540220 0.479328 0.000000
