data_B4_PM
_symmetry_space_group_name_H-M   'P 1'
_cell_length_a 52.601451
_cell_length_b 52.601451
_cell_length_c 52.601451
_cell_angle_alpha 90.000000
_cell_angle_beta 90.000000
_cell_angle_gamma 90.000000
_symmetry_Int_Tables_number 1

loop_
_symmetry_equiv_pos_as_xyz
 'x, y, z'

loop_
_atom_site_label
_atom_site_fract_x
_atom_site_fract_y
_atom_site_fract_z
_atom_site_charge
C 0.410996 0.453890 0.531081 0.000000
C 0.409967 0.477589 0.514772 0.000000
C 0.409718 0.501826 0.526245 0.000000
C 0.410165 0.523939 0.511079 0.000000
C 0.409485 0.521757 0.484349 0.000000
C 0.409766 0.497564 0.472782 0.000000
C 0.409336 0.475518 0.488042 0.000000
C 0.407492 0.449502 0.475725 0.000000
N 0.430909 0.435781 0.469413 0.000000
C 0.410661 0.495247 0.444089 0.000000
C 0.407664 0.545470 0.468014 0.000000
N 0.431033 0.557936 0.459337 0.000000
C 0.411438 0.549912 0.523418 0.000000
C 0.407870 0.504067 0.554972 0.000000
N 0.431122 0.504986 0.570266 0.000000
C 0.588692 0.495974 0.445714 0.000000
C 0.589890 0.498337 0.474385 0.000000
C 0.590357 0.476298 0.489661 0.000000
C 0.590079 0.478385 0.516388 0.000000
C 0.590636 0.502627 0.527826 0.000000
C 0.590157 0.524746 0.512656 0.000000
C 0.590498 0.522537 0.485928 0.000000
C 0.592292 0.546197 0.469495 0.000000
N 0.568934 0.558435 0.460537 0.000000
C 0.589130 0.550716 0.525033 0.000000
C 0.592377 0.504866 0.556526 0.000000
N 0.568904 0.505897 0.571494 0.000000
C 0.589052 0.454718 0.532749 0.000000
C 0.592066 0.450311 0.477282 0.000000
N 0.568711 0.436697 0.470696 0.000000
C 0.499963 0.549987 0.465425 0.000000
C 0.476756 0.560700 0.457722 0.000000
C 0.452673 0.548857 0.465785 0.000000
C 0.476933 0.582562 0.442489 0.000000
C 0.500070 0.593737 0.434978 0.000000
C 0.500102 0.615879 0.419429 0.000000
C 0.500083 0.634908 0.405998 0.000000
Si 0.500183 0.663414 0.385878 0.000000
C 0.522525 0.657832 0.358621 0.000000
C 0.511213 0.691076 0.405528 0.000000
C 0.467000 0.668986 0.374030 0.000000
C 0.523149 0.582755 0.442956 0.000000
C 0.523231 0.560851 0.458138 0.000000
C 0.547267 0.549164 0.466613 0.000000
C 0.500125 0.505015 0.561022 0.000000
C 0.476769 0.505777 0.573901 0.000000
C 0.452858 0.504634 0.559336 0.000000
C 0.476631 0.507662 0.600489 0.000000
C 0.499593 0.508733 0.614214 0.000000
C 0.499295 0.510791 0.641183 0.000000
C 0.499041 0.512666 0.664396 0.000000
Si 0.498934 0.515548 0.699157 0.000000
C 0.530706 0.528136 0.709437 0.000000
C 0.493145 0.483134 0.712945 0.000000
C 0.472933 0.538140 0.708529 0.000000
C 0.522835 0.507813 0.600954 0.000000
C 0.523210 0.505982 0.574370 0.000000
C 0.547352 0.505000 0.560232 0.000000
C 0.499692 0.445083 0.474262 0.000000
C 0.476641 0.433048 0.468263 0.000000
C 0.452497 0.445910 0.474245 0.000000
C 0.477088 0.409051 0.456686 0.000000
C 0.500382 0.397093 0.451090 0.000000
C 0.500752 0.372802 0.439169 0.000000
C 0.501008 0.351972 0.428744 0.000000
Si 0.501074 0.320931 0.412818 0.000000
C 0.474116 0.320323 0.389438 0.000000
C 0.496826 0.295552 0.437570 0.000000
C 0.532283 0.317072 0.395962 0.000000
C 0.523302 0.409452 0.457314 0.000000
C 0.523098 0.433463 0.468878 0.000000
C 0.546996 0.446620 0.475379 0.000000
H 0.421014 0.438362 0.521435 0.000000
H 0.391823 0.446917 0.535881 0.000000
H 0.421027 0.457343 0.549023 0.000000
H 0.396488 0.450683 0.457955 0.000000
H 0.396265 0.436603 0.487805 0.000000
H 0.420577 0.511385 0.435389 0.000000
H 0.420758 0.478017 0.438109 0.000000
H 0.391460 0.494456 0.435729 0.000000
H 0.396611 0.560213 0.477958 0.000000
H 0.396459 0.541495 0.450785 0.000000
H 0.421440 0.563658 0.511356 0.000000
H 0.421607 0.549278 0.541603 0.000000
H 0.392342 0.557676 0.527212 0.000000
H 0.396912 0.521150 0.560128 0.000000
H 0.396496 0.488255 0.562644 0.000000
H 0.578499 0.478766 0.439846 0.000000
H 0.578771 0.512139 0.437071 0.000000
H 0.607821 0.495114 0.437188 0.000000
H 0.603653 0.542179 0.452370 0.000000
H 0.603184 0.561062 0.479426 0.000000
H 0.579097 0.564523 0.513063 0.000000
H 0.608288 0.558376 0.528704 0.000000
H 0.579074 0.550109 0.543283 0.000000
H 0.603388 0.521866 0.561812 0.000000
H 0.603533 0.488959 0.564325 0.000000
H 0.608224 0.447806 0.537640 0.000000
H 0.579104 0.439143 0.523112 0.000000
H 0.578948 0.458193 0.550646 0.000000
H 0.603152 0.437291 0.489360 0.000000
H 0.603217 0.451506 0.459598 0.000000
H 0.499902 0.532906 0.477281 0.000000
H 0.454505 0.531681 0.477798 0.000000
H 0.458879 0.590777 0.436533 0.000000
H 0.541929 0.654203 0.365480 0.000000
H 0.523135 0.674524 0.346030 0.000000
H 0.516564 0.641352 0.347246 0.000000
H 0.498453 0.694356 0.421746 0.000000
H 0.530420 0.687754 0.413058 0.000000
H 0.511703 0.708546 0.394035 0.000000
H 0.460144 0.652676 0.362912 0.000000
H 0.466281 0.685922 0.361776 0.000000
H 0.453751 0.671941 0.389917 0.000000
H 0.541247 0.591138 0.437379 0.000000
H 0.545359 0.531935 0.478542 0.000000
H 0.500344 0.503595 0.540281 0.000000
H 0.454914 0.503466 0.538424 0.000000
H 0.458455 0.508295 0.610394 0.000000
H 0.534421 0.546883 0.700990 0.000000
H 0.546124 0.515299 0.703599 0.000000
H 0.531488 0.530147 0.730243 0.000000
H 0.508065 0.469746 0.707050 0.000000
H 0.474779 0.475466 0.706581 0.000000
H 0.492975 0.483870 0.733848 0.000000
H 0.472220 0.540372 0.729314 0.000000
H 0.454285 0.531226 0.702123 0.000000
H 0.476023 0.557009 0.700103 0.000000
H 0.540821 0.508570 0.611194 0.000000
H 0.545643 0.503448 0.539318 0.000000
H 0.499379 0.463817 0.483274 0.000000
H 0.454250 0.464882 0.483173 0.000000
H 0.459145 0.399808 0.452040 0.000000
H 0.473401 0.301960 0.379447 0.000000
H 0.476284 0.335392 0.375127 0.000000
H 0.455775 0.323180 0.399032 0.000000
H 0.478760 0.297996 0.447781 0.000000
H 0.512271 0.296094 0.451629 0.000000
H 0.496757 0.276580 0.428753 0.000000
H 0.533207 0.298630 0.386140 0.000000
H 0.548244 0.318036 0.409415 0.000000
H 0.534989 0.332127 0.381727 0.000000
H 0.541510 0.400510 0.453144 0.000000
H 0.544940 0.465504 0.484430 0.000000
