data_B5_PM
_symmetry_space_group_name_H-M   'P 1'
_cell_length_a 50.662642
_cell_length_b 50.662642
_cell_length_c 50.662642
_cell_angle_alpha 90.000000
_cell_angle_beta 90.000000
_cell_angle_gamma 90.000000
_symmetry_Int_Tables_number 1

loop_
_symmetry_equiv_pos_as_xyz
 'x, y, z'

loop_
_atom_site_label
_atom_site_fract_x
_atom_site_fract_y
_atom_site_fract_z
_atom_site_charge
C 0.407679 0.505245 0.441844 0.000000
C 0.406211 0.502989 0.471620 0.000000
C 0.405577 0.477926 0.483712 0.000000
C 0.405931 0.475734 0.511464 0.000000
C 0.405552 0.498755 0.527121 0.000000
C 0.406165 0.523877 0.515130 0.000000
C 0.405764 0.525938 0.487368 0.000000
C 0.404421 0.552899 0.474420 0.000000
N 0.429063 0.566592 0.467964 0.000000
C 0.407525 0.548494 0.532034 0.000000
C 0.403805 0.496479 0.556929 0.000000
N 0.428143 0.494812 0.572469 0.000000
C 0.406970 0.448757 0.524321 0.000000
C 0.403939 0.453309 0.466772 0.000000
N 0.428371 0.440609 0.457939 0.000000
C 0.593018 0.504543 0.443453 0.000000
C 0.594084 0.501733 0.473201 0.000000
C 0.594350 0.476452 0.484838 0.000000
C 0.593700 0.473761 0.512530 0.000000
C 0.594247 0.496476 0.528623 0.000000
C 0.593951 0.521816 0.517108 0.000000
C 0.594550 0.524375 0.489388 0.000000
C 0.596356 0.551543 0.476946 0.000000
N 0.572038 0.565624 0.470099 0.000000
C 0.592717 0.546169 0.534409 0.000000
C 0.595689 0.493628 0.558391 0.000000
N 0.571139 0.492524 0.573659 0.000000
C 0.592127 0.446618 0.524955 0.000000
C 0.595851 0.452120 0.467501 0.000000
N 0.571326 0.439860 0.458338 0.000000
C 0.501534 0.683777 0.414725 0.000000
C 0.482613 0.665133 0.407235 0.000000
C 0.482469 0.640119 0.418750 0.000000
C 0.501282 0.633204 0.437963 0.000000
C 0.520245 0.652118 0.445262 0.000000
C 0.520359 0.677156 0.433774 0.000000
C 0.501049 0.606631 0.450220 0.000000
C 0.477085 0.593980 0.455918 0.000000
C 0.476527 0.568822 0.467461 0.000000
C 0.451249 0.555781 0.473456 0.000000
C 0.500431 0.556198 0.473511 0.000000
C 0.524646 0.568506 0.468085 0.000000
C 0.549557 0.554992 0.474627 0.000000
C 0.524709 0.593621 0.456391 0.000000
C 0.498714 0.481415 0.702223 0.000000
C 0.517769 0.468368 0.687130 0.000000
C 0.517923 0.470958 0.659711 0.000000
C 0.498995 0.486623 0.646780 0.000000
C 0.479908 0.499607 0.662204 0.000000
C 0.479785 0.497047 0.689631 0.000000
C 0.499206 0.489386 0.617632 0.000000
C 0.475525 0.490948 0.603345 0.000000
C 0.475538 0.493713 0.575780 0.000000
C 0.450608 0.495413 0.560900 0.000000
C 0.499724 0.494705 0.562315 0.000000
C 0.523655 0.493056 0.576173 0.000000
C 0.548885 0.494100 0.561761 0.000000
C 0.523144 0.490504 0.603741 0.000000
C 0.499629 0.334948 0.382158 0.000000
C 0.518708 0.354569 0.378617 0.000000
C 0.518758 0.376944 0.394693 0.000000
C 0.499700 0.380211 0.414637 0.000000
C 0.480570 0.360348 0.417898 0.000000
C 0.480552 0.337952 0.401858 0.000000
C 0.499760 0.403963 0.431791 0.000000
C 0.523599 0.415292 0.440213 0.000000
C 0.523905 0.437795 0.456365 0.000000
C 0.549005 0.449549 0.465169 0.000000
C 0.499879 0.449059 0.464287 0.000000
C 0.475791 0.438042 0.456204 0.000000
C 0.450767 0.450203 0.464666 0.000000
C 0.475978 0.415597 0.439969 0.000000
H 0.387912 0.506120 0.432792 0.000000
H 0.418360 0.523052 0.435741 0.000000
H 0.418052 0.488397 0.433082 0.000000
H 0.392958 0.566603 0.486807 0.000000
H 0.393084 0.551765 0.455907 0.000000
H 0.417857 0.564578 0.521893 0.000000
H 0.418187 0.544858 0.550515 0.000000
H 0.387719 0.555803 0.537300 0.000000
H 0.391987 0.479063 0.562378 0.000000
H 0.392584 0.513224 0.565063 0.000000
H 0.417046 0.449419 0.543459 0.000000
H 0.417717 0.434527 0.512055 0.000000
H 0.387073 0.440641 0.527740 0.000000
H 0.392503 0.437916 0.477009 0.000000
H 0.392421 0.457366 0.448789 0.000000
H 0.612909 0.505147 0.434651 0.000000
H 0.582796 0.522672 0.437528 0.000000
H 0.582401 0.488066 0.434283 0.000000
H 0.607641 0.564932 0.489825 0.000000
H 0.608125 0.550619 0.458690 0.000000
H 0.582127 0.562320 0.524640 0.000000
H 0.582383 0.542234 0.553010 0.000000
H 0.612561 0.553543 0.539443 0.000000
H 0.606899 0.475767 0.563672 0.000000
H 0.607360 0.509883 0.566896 0.000000
H 0.581720 0.432598 0.512170 0.000000
H 0.581422 0.447095 0.543760 0.000000
H 0.611861 0.438363 0.528934 0.000000
H 0.607062 0.436431 0.477537 0.000000
H 0.607515 0.456361 0.449654 0.000000
H 0.501619 0.703343 0.405739 0.000000
H 0.467975 0.670049 0.392223 0.000000
H 0.467891 0.625564 0.412476 0.000000
H 0.534742 0.647270 0.460432 0.000000
H 0.535124 0.691609 0.439847 0.000000
H 0.458286 0.603646 0.451909 0.000000
H 0.452643 0.536152 0.482950 0.000000
H 0.500193 0.536596 0.482563 0.000000
H 0.547602 0.535209 0.483692 0.000000
H 0.543735 0.602592 0.451858 0.000000
H 0.498623 0.479431 0.723662 0.000000
H 0.532504 0.455949 0.696746 0.000000
H 0.532597 0.460315 0.648088 0.000000
H 0.465322 0.512215 0.652610 0.000000
H 0.464930 0.507459 0.701236 0.000000
H 0.456512 0.489635 0.613336 0.000000
H 0.452536 0.497245 0.539212 0.000000
H 0.499926 0.496764 0.540824 0.000000
H 0.547375 0.496269 0.540070 0.000000
H 0.541966 0.489843 0.614148 0.000000
H 0.499615 0.317440 0.369629 0.000000
H 0.533573 0.352504 0.363172 0.000000
H 0.533485 0.392329 0.391496 0.000000
H 0.465862 0.362287 0.433509 0.000000
H 0.465660 0.322693 0.404888 0.000000
H 0.542491 0.406569 0.434731 0.000000
H 0.547331 0.467191 0.477952 0.000000
H 0.499926 0.466580 0.476906 0.000000
H 0.452567 0.468040 0.477160 0.000000
H 0.457042 0.407696 0.433487 0.000000
