data_B6_PM
_symmetry_space_group_name_H-M   'P 1'
_cell_length_a 55.378094
_cell_length_b 55.378094
_cell_length_c 55.378094
_cell_angle_alpha 90.000000
_cell_angle_beta 90.000000
_cell_angle_gamma 90.000000
_symmetry_Int_Tables_number 1

loop_
_symmetry_equiv_pos_as_xyz
 'x, y, z'

loop_
_atom_site_label
_atom_site_fract_x
_atom_site_fract_y
_atom_site_fract_z
_atom_site_charge
C 0.585325 0.551432 0.505949 0.000000
C 0.585929 0.524143 0.504129 0.000000
C 0.586974 0.512891 0.481296 0.000000
C 0.586138 0.487491 0.479466 0.000000
C 0.585509 0.473306 0.500618 0.000000
C 0.584405 0.484467 0.523491 0.000000
C 0.585298 0.509863 0.525211 0.000000
C 0.586276 0.521836 0.549834 0.000000
N 0.563716 0.528650 0.561865 0.000000
C 0.582150 0.469283 0.546119 0.000000
C 0.586690 0.445980 0.498837 0.000000
N 0.564216 0.432076 0.497388 0.000000
C 0.585710 0.475492 0.454896 0.000000
C 0.589627 0.528119 0.458674 0.000000
N 0.567884 0.536264 0.445950 0.000000
C 0.416570 0.554545 0.500066 0.000000
C 0.414780 0.527281 0.498857 0.000000
C 0.414863 0.515473 0.476301 0.000000
C 0.414782 0.490033 0.475143 0.000000
C 0.413347 0.476414 0.496614 0.000000
C 0.413113 0.488134 0.519229 0.000000
C 0.413160 0.513582 0.520263 0.000000
C 0.410988 0.526313 0.544415 0.000000
N 0.433013 0.532568 0.557678 0.000000
C 0.412944 0.473436 0.542302 0.000000
C 0.411362 0.449114 0.495372 0.000000
N 0.433430 0.434509 0.495398 0.000000
C 0.416375 0.477429 0.450926 0.000000
C 0.414370 0.530173 0.453186 0.000000
N 0.437179 0.537142 0.441776 0.000000
C 0.512059 0.596221 0.707481 0.000000
C 0.496862 0.598604 0.688708 0.000000
C 0.497475 0.585445 0.665733 0.000000
C 0.480608 0.591319 0.647641 0.000000
C 0.480559 0.579596 0.625393 0.000000
C 0.497465 0.561394 0.620223 0.000000
C 0.514246 0.555311 0.638369 0.000000
C 0.514240 0.566991 0.660575 0.000000
C 0.497768 0.549127 0.596474 0.000000
C 0.519714 0.542420 0.585681 0.000000
C 0.520312 0.530970 0.563086 0.000000
C 0.543411 0.524321 0.551684 0.000000
C 0.498502 0.526154 0.551131 0.000000
C 0.476341 0.532633 0.561577 0.000000
C 0.453667 0.527052 0.548862 0.000000
C 0.476181 0.544085 0.584175 0.000000
C 0.511571 0.272261 0.481097 0.000000
C 0.495744 0.287581 0.491288 0.000000
C 0.496863 0.314035 0.491615 0.000000
C 0.479337 0.327018 0.504690 0.000000
C 0.479610 0.352140 0.505739 0.000000
C 0.497544 0.365462 0.493707 0.000000
C 0.515072 0.352534 0.480534 0.000000
C 0.514733 0.327468 0.479456 0.000000
C 0.498050 0.392172 0.494793 0.000000
C 0.520085 0.404686 0.495594 0.000000
C 0.520756 0.429987 0.496717 0.000000
C 0.543875 0.443071 0.497830 0.000000
C 0.498986 0.442949 0.497054 0.000000
C 0.476743 0.430857 0.496251 0.000000
C 0.454110 0.444820 0.496297 0.000000
C 0.476508 0.405546 0.495125 0.000000
C 0.489997 0.617784 0.303793 0.000000
C 0.505534 0.617438 0.322430 0.000000
C 0.504656 0.601900 0.343857 0.000000
C 0.487381 0.583495 0.347121 0.000000
C 0.487091 0.569526 0.367963 0.000000
C 0.504125 0.573132 0.386534 0.000000
C 0.521538 0.591296 0.383216 0.000000
C 0.521750 0.605333 0.362353 0.000000
C 0.503561 0.558448 0.408882 0.000000
C 0.481451 0.551485 0.419143 0.000000
C 0.480579 0.537804 0.440444 0.000000
C 0.457298 0.530930 0.451317 0.000000
C 0.502253 0.530984 0.451623 0.000000
C 0.524581 0.537753 0.441741 0.000000
C 0.547014 0.530261 0.453887 0.000000
C 0.525033 0.551411 0.420401 0.000000
H 0.575511 0.557451 0.522056 0.000000
H 0.576258 0.559553 0.490331 0.000000
H 0.603629 0.559201 0.506892 0.000000
H 0.596089 0.510248 0.562679 0.000000
H 0.597247 0.538398 0.548933 0.000000
H 0.572031 0.478756 0.560258 0.000000
H 0.599957 0.464603 0.553692 0.000000
H 0.572592 0.452308 0.542597 0.000000
H 0.597542 0.440619 0.483062 0.000000
H 0.596727 0.438584 0.514336 0.000000
H 0.575660 0.458436 0.455312 0.000000
H 0.604054 0.471411 0.448326 0.000000
H 0.576995 0.486970 0.441323 0.000000
H 0.600177 0.544498 0.462648 0.000000
H 0.600599 0.518463 0.445185 0.000000
H 0.398639 0.563181 0.499648 0.000000
H 0.426986 0.561828 0.484883 0.000000
H 0.425616 0.560522 0.516632 0.000000
H 0.399911 0.515506 0.556902 0.000000
H 0.400774 0.543250 0.542320 0.000000
H 0.394417 0.469303 0.548297 0.000000
H 0.421954 0.483001 0.557110 0.000000
H 0.422402 0.456193 0.540013 0.000000
H 0.401240 0.443739 0.479117 0.000000
H 0.400251 0.442364 0.510417 0.000000
H 0.426637 0.488127 0.437803 0.000000
H 0.398364 0.474129 0.443115 0.000000
H 0.425463 0.459901 0.452409 0.000000
H 0.404255 0.547056 0.456034 0.000000
H 0.403914 0.520592 0.439240 0.000000
H 0.509779 0.607074 0.723729 0.000000
H 0.527171 0.583584 0.707378 0.000000
H 0.482234 0.611822 0.690233 0.000000
H 0.467441 0.605592 0.651092 0.000000
H 0.467545 0.584985 0.611621 0.000000
H 0.527243 0.540881 0.635054 0.000000
H 0.527387 0.561578 0.674203 0.000000
H 0.536889 0.546444 0.594417 0.000000
H 0.542094 0.515464 0.533812 0.000000
H 0.498763 0.517239 0.533508 0.000000
H 0.455620 0.517718 0.531299 0.000000
H 0.458741 0.548532 0.592146 0.000000
H 0.527683 0.278415 0.471575 0.000000
H 0.508820 0.252808 0.482071 0.000000
H 0.480130 0.279892 0.500675 0.000000
H 0.465331 0.317081 0.514389 0.000000
H 0.465988 0.361556 0.516407 0.000000
H 0.528903 0.362427 0.470585 0.000000
H 0.528455 0.318190 0.468802 0.000000
H 0.537211 0.394986 0.495864 0.000000
H 0.542549 0.462972 0.499131 0.000000
H 0.499376 0.462677 0.497928 0.000000
H 0.456112 0.464690 0.497122 0.000000
H 0.459036 0.396544 0.494036 0.000000
H 0.492537 0.630251 0.288790 0.000000
H 0.474337 0.605872 0.302789 0.000000
H 0.520691 0.630135 0.322095 0.000000
H 0.474050 0.579934 0.333068 0.000000
H 0.473688 0.555204 0.369810 0.000000
H 0.534767 0.594787 0.397390 0.000000
H 0.535311 0.619514 0.360359 0.000000
H 0.464388 0.557028 0.411046 0.000000
H 0.458304 0.520227 0.468169 0.000000
H 0.501755 0.520340 0.468253 0.000000
H 0.544669 0.519121 0.470316 0.000000
H 0.542575 0.556086 0.412788 0.000000
