data_B8_PM
_symmetry_space_group_name_H-M   'P 1'
_cell_length_a 48.492883
_cell_length_b 48.492883
_cell_length_c 48.492883
_cell_angle_alpha 90.000000
_cell_angle_beta 90.000000
_cell_angle_gamma 90.000000
_symmetry_Int_Tables_number 1

loop_
_symmetry_equiv_pos_as_xyz
 'x, y, z'

loop_
_atom_site_label
_atom_site_fract_x
_atom_site_fract_y
_atom_site_fract_z
_atom_site_charge
C 0.403262 0.513371 0.441558 0.000000
C 0.402134 0.506945 0.472105 0.000000
C 0.401720 0.528519 0.491618 0.000000
C 0.402288 0.522549 0.520084 0.000000
C 0.401834 0.494868 0.529030 0.000000
C 0.402260 0.473212 0.509610 0.000000
C 0.401663 0.479306 0.481171 0.000000
C 0.399560 0.456059 0.460334 0.000000
N 0.424799 0.443620 0.449337 0.000000
C 0.403497 0.443531 0.519247 0.000000
C 0.400058 0.488411 0.559600 0.000000
N 0.425507 0.485004 0.575532 0.000000
C 0.403586 0.545786 0.540905 0.000000
C 0.399941 0.558219 0.481930 0.000000
N 0.425432 0.573522 0.476423 0.000000
C 0.596728 0.544565 0.538881 0.000000
C 0.597803 0.520918 0.518488 0.000000
C 0.598328 0.493429 0.528009 0.000000
C 0.597805 0.471366 0.509051 0.000000
C 0.598232 0.476885 0.480493 0.000000
C 0.597727 0.504323 0.470860 0.000000
C 0.598225 0.526307 0.489904 0.000000
C 0.600192 0.555823 0.479668 0.000000
N 0.574902 0.571562 0.474547 0.000000
C 0.596546 0.510131 0.440194 0.000000
C 0.599813 0.453259 0.460047 0.000000
N 0.574187 0.441391 0.449259 0.000000
C 0.596667 0.441867 0.519255 0.000000
C 0.600346 0.487684 0.558715 0.000000
N 0.575042 0.484906 0.575039 0.000000
C 0.519862 0.682566 0.421793 0.000000
N 0.501575 0.701372 0.430781 0.000000
C 0.482878 0.692421 0.449194 0.000000
C 0.481611 0.665424 0.459077 0.000000
C 0.500814 0.645888 0.449678 0.000000
C 0.520389 0.655118 0.430440 0.000000
C 0.500505 0.617000 0.459699 0.000000
C 0.475465 0.603512 0.465043 0.000000
C 0.475010 0.576199 0.474609 0.000000
C 0.448810 0.561802 0.480025 0.000000
C 0.500051 0.562345 0.478881 0.000000
C 0.525336 0.575410 0.473698 0.000000
C 0.551327 0.560409 0.478649 0.000000
C 0.525298 0.602707 0.464065 0.000000
C 0.519437 0.476053 0.697420 0.000000
N 0.500480 0.459643 0.709256 0.000000
C 0.481478 0.448647 0.692323 0.000000
C 0.480532 0.453340 0.663953 0.000000
C 0.500408 0.470454 0.651688 0.000000
C 0.520303 0.481996 0.669282 0.000000
C 0.500369 0.476079 0.621640 0.000000
C 0.475409 0.478843 0.607253 0.000000
C 0.475097 0.484306 0.578834 0.000000
C 0.448950 0.487520 0.563654 0.000000
C 0.500240 0.486946 0.564763 0.000000
C 0.525451 0.484227 0.578703 0.000000
C 0.551501 0.486974 0.563262 0.000000
C 0.525270 0.478805 0.607135 0.000000
C 0.517407 0.341335 0.380337 0.000000
N 0.498407 0.339427 0.360241 0.000000
C 0.479495 0.359678 0.359277 0.000000
C 0.478697 0.381882 0.377565 0.000000
C 0.498648 0.383839 0.398468 0.000000
C 0.518429 0.362710 0.399563 0.000000
C 0.498916 0.407041 0.418377 0.000000
C 0.523997 0.417881 0.427917 0.000000
C 0.524604 0.439757 0.446842 0.000000
C 0.550889 0.451102 0.456999 0.000000
C 0.499613 0.450886 0.456227 0.000000
C 0.474293 0.440392 0.446967 0.000000
C 0.448376 0.452350 0.457365 0.000000
C 0.474172 0.418482 0.428058 0.000000
H 0.414239 0.497278 0.430080 0.000000
H 0.382478 0.515153 0.432524 0.000000
H 0.414043 0.532830 0.437526 0.000000
H 0.387514 0.462809 0.442305 0.000000
H 0.387394 0.438938 0.468975 0.000000
H 0.382743 0.434744 0.522218 0.000000
H 0.414309 0.430376 0.504373 0.000000
H 0.414493 0.441611 0.538911 0.000000
H 0.388006 0.469444 0.562887 0.000000
H 0.388063 0.504464 0.570284 0.000000
H 0.414314 0.539479 0.559781 0.000000
H 0.414725 0.563674 0.532706 0.000000
H 0.382862 0.552905 0.546953 0.000000
H 0.388222 0.570663 0.496875 0.000000
H 0.387647 0.559479 0.462876 0.000000
H 0.585869 0.562458 0.530332 0.000000
H 0.585867 0.538732 0.557833 0.000000
H 0.617535 0.551497 0.544863 0.000000
H 0.612060 0.556590 0.460322 0.000000
H 0.612491 0.568272 0.494144 0.000000
H 0.617315 0.511757 0.431101 0.000000
H 0.585734 0.529498 0.435803 0.000000
H 0.585565 0.493822 0.429032 0.000000
H 0.612014 0.459413 0.441906 0.000000
H 0.611505 0.435944 0.468932 0.000000
H 0.586223 0.440351 0.539249 0.000000
H 0.585333 0.428552 0.504916 0.000000
H 0.617438 0.432983 0.521764 0.000000
H 0.612256 0.468693 0.562346 0.000000
H 0.612609 0.503882 0.568861 0.000000
H 0.534946 0.689884 0.406703 0.000000
H 0.468110 0.707799 0.456555 0.000000
H 0.466096 0.659814 0.474368 0.000000
H 0.535653 0.640969 0.421906 0.000000
H 0.455794 0.613775 0.461408 0.000000
H 0.450653 0.540247 0.487307 0.000000
H 0.499843 0.541065 0.486363 0.000000
H 0.549126 0.538940 0.486099 0.000000
H 0.545134 0.612712 0.460609 0.000000
H 0.534779 0.485043 0.711298 0.000000
H 0.466177 0.435219 0.702033 0.000000
H 0.464730 0.443326 0.651461 0.000000
H 0.536078 0.495864 0.661232 0.000000
H 0.455687 0.477358 0.617943 0.000000
H 0.450906 0.492196 0.541394 0.000000
H 0.500191 0.491195 0.542608 0.000000
H 0.549383 0.490953 0.540883 0.000000
H 0.545039 0.476295 0.617545 0.000000
H 0.532652 0.324729 0.381142 0.000000
H 0.464147 0.358094 0.342825 0.000000
H 0.462961 0.397783 0.375196 0.000000
H 0.534247 0.362628 0.415556 0.000000
H 0.543626 0.409811 0.420500 0.000000
H 0.549190 0.468407 0.471788 0.000000
H 0.499858 0.467941 0.470988 0.000000
H 0.450602 0.469293 0.472501 0.000000
H 0.454287 0.410283 0.421516 0.000000
