data_B9_PM
_symmetry_space_group_name_H-M   'P 1'
_cell_length_a 48.780900
_cell_length_b 48.780900
_cell_length_c 48.780900
_cell_angle_alpha 90.000000
_cell_angle_beta 90.000000
_cell_angle_gamma 90.000000
_symmetry_Int_Tables_number 1

loop_
_symmetry_equiv_pos_as_xyz
 'x, y, z'

loop_
_atom_site_label
_atom_site_fract_x
_atom_site_fract_y
_atom_site_fract_z
_atom_site_charge
C 0.407357 0.437922 0.518646 0.000000
C 0.404451 0.467555 0.509837 0.000000
C 0.403214 0.488517 0.529705 0.000000
C 0.402256 0.516251 0.521568 0.000000
C 0.401131 0.522899 0.493453 0.000000
C 0.402361 0.502019 0.473490 0.000000
C 0.403185 0.474322 0.481758 0.000000
C 0.402007 0.451766 0.460396 0.000000
N 0.427634 0.441141 0.448891 0.000000
C 0.403044 0.509306 0.443323 0.000000
C 0.397987 0.552565 0.484655 0.000000
N 0.422589 0.569061 0.479659 0.000000
C 0.402697 0.538772 0.542925 0.000000
C 0.402205 0.481197 0.559902 0.000000
N 0.427861 0.479015 0.575382 0.000000
C 0.598228 0.446859 0.517218 0.000000
C 0.598484 0.476436 0.507776 0.000000
C 0.598516 0.482672 0.479528 0.000000
C 0.596912 0.510154 0.470690 0.000000
C 0.596737 0.531490 0.490213 0.000000
C 0.596852 0.525397 0.518470 0.000000
C 0.598491 0.497867 0.527185 0.000000
C 0.601065 0.491397 0.557499 0.000000
N 0.576212 0.486968 0.573763 0.000000
C 0.594979 0.548306 0.539337 0.000000
C 0.597020 0.561088 0.480719 0.000000
N 0.570911 0.575195 0.476108 0.000000
C 0.595225 0.516744 0.440387 0.000000
C 0.600960 0.459776 0.458635 0.000000
N 0.575992 0.447076 0.447787 0.000000
C 0.475188 0.689780 0.451209 0.000000
S 0.505253 0.691806 0.432885 0.000000
C 0.513197 0.658271 0.439736 0.000000
C 0.493371 0.645576 0.455624 0.000000
C 0.471474 0.664073 0.462044 0.000000
C 0.494681 0.616744 0.464613 0.000000
C 0.470616 0.601685 0.469386 0.000000
C 0.471659 0.574223 0.477928 0.000000
C 0.446387 0.558434 0.482782 0.000000
C 0.497245 0.561607 0.481604 0.000000
C 0.521567 0.576219 0.476827 0.000000
C 0.548285 0.562743 0.480839 0.000000
C 0.520034 0.603701 0.468530 0.000000
C 0.520378 0.467969 0.695017 0.000000
S 0.490907 0.448824 0.697905 0.000000
C 0.483944 0.452013 0.663618 0.000000
C 0.503657 0.467285 0.650020 0.000000
C 0.524640 0.476336 0.668491 0.000000
C 0.503033 0.473445 0.620412 0.000000
C 0.478010 0.475294 0.606283 0.000000
C 0.477148 0.480943 0.578104 0.000000
C 0.450859 0.482927 0.563342 0.000000
C 0.501816 0.485078 0.563890 0.000000
C 0.527069 0.483500 0.577572 0.000000
C 0.552671 0.487951 0.562179 0.000000
C 0.527446 0.477604 0.605733 0.000000
C 0.521504 0.351652 0.370474 0.000000
S 0.490631 0.357493 0.354457 0.000000
C 0.483150 0.384352 0.375836 0.000000
C 0.503722 0.388975 0.394862 0.000000
C 0.525826 0.369918 0.391434 0.000000
C 0.502918 0.410724 0.415837 0.000000
C 0.527273 0.422438 0.425697 0.000000
C 0.526838 0.443215 0.445582 0.000000
C 0.552458 0.455399 0.455902 0.000000
C 0.501555 0.452552 0.455604 0.000000
C 0.476930 0.441133 0.446061 0.000000
C 0.450582 0.451020 0.456959 0.000000
C 0.477866 0.420235 0.426345 0.000000
H 0.418297 0.425738 0.503252 0.000000
H 0.418944 0.436124 0.537827 0.000000
H 0.387268 0.428118 0.521974 0.000000
H 0.390919 0.433888 0.468593 0.000000
H 0.389494 0.458394 0.442810 0.000000
H 0.412989 0.529160 0.439842 0.000000
H 0.414517 0.494086 0.431408 0.000000
H 0.382280 0.510532 0.434483 0.000000
H 0.385684 0.553794 0.465762 0.000000
H 0.385799 0.563939 0.499878 0.000000
H 0.413865 0.532476 0.561382 0.000000
H 0.412801 0.557302 0.535186 0.000000
H 0.381842 0.544661 0.549342 0.000000
H 0.389418 0.496089 0.571059 0.000000
H 0.391479 0.461539 0.562773 0.000000
H 0.587439 0.433624 0.502596 0.000000
H 0.619127 0.438605 0.519629 0.000000
H 0.587801 0.444588 0.537000 0.000000
H 0.612590 0.507752 0.567951 0.000000
H 0.613806 0.472982 0.560432 0.000000
H 0.584732 0.541529 0.558161 0.000000
H 0.615386 0.556057 0.545182 0.000000
H 0.583198 0.565741 0.531432 0.000000
H 0.608522 0.573856 0.495364 0.000000
H 0.608673 0.562968 0.461478 0.000000
H 0.583161 0.535343 0.436658 0.000000
H 0.615682 0.520070 0.431374 0.000000
H 0.585400 0.500173 0.428819 0.000000
H 0.613431 0.442922 0.467011 0.000000
H 0.612687 0.466866 0.440691 0.000000
H 0.462051 0.707644 0.453216 0.000000
H 0.531694 0.649272 0.431210 0.000000
H 0.453933 0.658592 0.474709 0.000000
H 0.450497 0.610869 0.466210 0.000000
H 0.449280 0.536883 0.489266 0.000000
H 0.498241 0.540207 0.488215 0.000000
H 0.547557 0.541281 0.488165 0.000000
H 0.539196 0.614819 0.465614 0.000000
H 0.532792 0.472226 0.713002 0.000000
H 0.466074 0.441962 0.654929 0.000000
H 0.541927 0.489047 0.662344 0.000000
H 0.458588 0.472844 0.617059 0.000000
H 0.452274 0.487976 0.541264 0.000000
H 0.501350 0.489642 0.541943 0.000000
H 0.550248 0.492216 0.540026 0.000000
H 0.547320 0.476010 0.615816 0.000000
H 0.534620 0.334953 0.363773 0.000000
H 0.464319 0.395897 0.373023 0.000000
H 0.543949 0.369472 0.404453 0.000000
H 0.547151 0.415921 0.417852 0.000000
H 0.550074 0.472089 0.471087 0.000000
H 0.501029 0.468784 0.471061 0.000000
H 0.451874 0.467495 0.472505 0.000000
H 0.458517 0.411247 0.419700 0.000000
