data_C11_PM
_symmetry_space_group_name_H-M   'P 1'
_cell_length_a 45.967046
_cell_length_b 45.967046
_cell_length_c 45.967046
_cell_angle_alpha 90.000000
_cell_angle_beta 90.000000
_cell_angle_gamma 90.000000
_symmetry_Int_Tables_number 1

loop_
_symmetry_equiv_pos_as_xyz
 'x, y, z'

loop_
_atom_site_label
_atom_site_fract_x
_atom_site_fract_y
_atom_site_fract_z
_atom_site_charge
C 0.424756 0.606394 0.361468 0.000000
N 0.448051 0.584807 0.363130 0.000000
C 0.412713 0.614466 0.391245 0.000000
C 0.386995 0.601235 0.401435 0.000000
C 0.375138 0.609981 0.428411 0.000000
C 0.389566 0.630873 0.445643 0.000000
C 0.415258 0.644047 0.435210 0.000000
C 0.427172 0.635567 0.408253 0.000000
C 0.455317 0.648980 0.397349 0.000000
C 0.450690 0.676592 0.379007 0.000000
C 0.429600 0.668241 0.452713 0.000000
N 0.449880 0.657615 0.474796 0.000000
C 0.377474 0.639292 0.475224 0.000000
C 0.356153 0.665096 0.474163 0.000000
C 0.346158 0.597556 0.438400 0.000000
N 0.345100 0.570804 0.455547 0.000000
C 0.372013 0.577671 0.383724 0.000000
C 0.349830 0.589273 0.361505 0.000000
C 0.578568 0.360583 0.398095 0.000000
N 0.554152 0.362643 0.418307 0.000000
C 0.591413 0.390126 0.390525 0.000000
C 0.616459 0.400102 0.405121 0.000000
C 0.629323 0.426700 0.396694 0.000000
C 0.616432 0.443867 0.374779 0.000000
C 0.591304 0.433720 0.360346 0.000000
C 0.578450 0.407084 0.368447 0.000000
C 0.550979 0.396422 0.353515 0.000000
C 0.556842 0.377950 0.326200 0.000000
C 0.578515 0.451291 0.335380 0.000000
N 0.558211 0.473823 0.344993 0.000000
C 0.629641 0.473014 0.366554 0.000000
C 0.652352 0.471024 0.342020 0.000000
C 0.657722 0.436300 0.410684 0.000000
N 0.657554 0.453557 0.437391 0.000000
C 0.629802 0.382355 0.429598 0.000000
C 0.652142 0.359666 0.419273 0.000000
C 0.416186 0.337177 0.544341 0.000000
N 0.438044 0.346194 0.523106 0.000000
C 0.403133 0.362537 0.561130 0.000000
C 0.378804 0.377455 0.549775 0.000000
C 0.365516 0.399596 0.566345 0.000000
C 0.377163 0.407620 0.593633 0.000000
C 0.401459 0.392581 0.604776 0.000000
C 0.414840 0.370345 0.588372 0.000000
C 0.441370 0.354764 0.600410 0.000000
C 0.433822 0.327761 0.618699 0.000000
C 0.412876 0.399622 0.635048 0.000000
N 0.437926 0.419196 0.634533 0.000000
C 0.363104 0.432014 0.610931 0.000000
C 0.339434 0.421518 0.632138 0.000000
C 0.337790 0.414052 0.555483 0.000000
N 0.339123 0.440854 0.538411 0.000000
C 0.366711 0.369389 0.520108 0.000000
C 0.343447 0.345335 0.521247 0.000000
C 0.576004 0.542910 0.667992 0.000000
N 0.554302 0.521937 0.658012 0.000000
C 0.590559 0.559353 0.643196 0.000000
C 0.615270 0.547439 0.629394 0.000000
C 0.630009 0.563690 0.607940 0.000000
C 0.619386 0.591236 0.599366 0.000000
C 0.594574 0.602837 0.613152 0.000000
C 0.579778 0.586785 0.634752 0.000000
C 0.552606 0.599303 0.648762 0.000000
C 0.558715 0.617703 0.676061 0.000000
C 0.584049 0.633232 0.605356 0.000000
N 0.560185 0.632975 0.584347 0.000000
C 0.635007 0.608182 0.575664 0.000000
C 0.658494 0.629021 0.587272 0.000000
C 0.658190 0.552252 0.594885 0.000000
N 0.657961 0.535627 0.567770 0.000000
C 0.626167 0.517474 0.638035 0.000000
C 0.648388 0.518104 0.663082 0.000000
C 0.464065 0.516905 0.324630 0.000000
C 0.485312 0.495597 0.321173 0.000000
C 0.511015 0.496447 0.337700 0.000000
C 0.533397 0.474367 0.332285 0.000000
C 0.514714 0.518954 0.358254 0.000000
C 0.493555 0.540177 0.361665 0.000000
C 0.467981 0.539620 0.344685 0.000000
C 0.445721 0.562399 0.346707 0.000000
C 0.340195 0.518525 0.488674 0.000000
C 0.339010 0.493255 0.505002 0.000000
C 0.364770 0.479223 0.514101 0.000000
C 0.363580 0.452293 0.531430 0.000000
C 0.391668 0.491434 0.506264 0.000000
C 0.392853 0.516931 0.489753 0.000000
C 0.367184 0.530852 0.480748 0.000000
C 0.368465 0.557794 0.463450 0.000000
C 0.524038 0.677742 0.496061 0.000000
C 0.545375 0.672852 0.516993 0.000000
C 0.540620 0.652863 0.539600 0.000000
C 0.563062 0.649354 0.561976 0.000000
C 0.514112 0.637394 0.540430 0.000000
C 0.492900 0.642200 0.519529 0.000000
C 0.497448 0.662710 0.497129 0.000000
C 0.475110 0.669468 0.475360 0.000000
C 0.511306 0.320653 0.504929 0.000000
C 0.533763 0.324003 0.484891 0.000000
C 0.531442 0.344341 0.462214 0.000000
C 0.554978 0.346145 0.440758 0.000000
C 0.506194 0.361717 0.460354 0.000000
C 0.483863 0.358446 0.480354 0.000000
C 0.486003 0.337654 0.502850 0.000000
C 0.462368 0.332593 0.523662 0.000000
C 0.607525 0.504752 0.514268 0.000000
C 0.607407 0.488372 0.488653 0.000000
C 0.633642 0.479146 0.475987 0.000000
C 0.633598 0.461801 0.449059 0.000000
C 0.660068 0.486798 0.489638 0.000000
C 0.660195 0.502940 0.515038 0.000000
C 0.633876 0.512213 0.527858 0.000000
C 0.633994 0.529226 0.555012 0.000000
C 0.486255 0.460627 0.638291 0.000000
C 0.508657 0.480249 0.643006 0.000000
C 0.505491 0.502893 0.663502 0.000000
C 0.529149 0.523273 0.669959 0.000000
C 0.479110 0.505582 0.678661 0.000000
C 0.456584 0.485898 0.673901 0.000000
C 0.459932 0.463024 0.653918 0.000000
C 0.436298 0.441879 0.650664 0.000000
H 0.434228 0.625932 0.351373 0.000000
H 0.407090 0.599319 0.346801 0.000000
H 0.469463 0.654067 0.415922 0.000000
H 0.467366 0.632708 0.384662 0.000000
H 0.437137 0.672178 0.359795 0.000000
H 0.471566 0.685420 0.371370 0.000000
H 0.439551 0.693667 0.391510 0.000000
H 0.412627 0.680381 0.464428 0.000000
H 0.440062 0.684115 0.437996 0.000000
H 0.395604 0.644384 0.489942 0.000000
H 0.366514 0.620444 0.485040 0.000000
H 0.348114 0.670464 0.496035 0.000000
H 0.366474 0.684691 0.465121 0.000000
H 0.337240 0.660285 0.460340 0.000000
H 0.334174 0.613895 0.451165 0.000000
H 0.331975 0.593695 0.419487 0.000000
H 0.361063 0.562398 0.398496 0.000000
H 0.388480 0.564545 0.372408 0.000000
H 0.360113 0.603869 0.345598 0.000000
H 0.332510 0.601796 0.372232 0.000000
H 0.339549 0.571311 0.349518 0.000000
H 0.570077 0.350470 0.378119 0.000000
H 0.595620 0.345746 0.406234 0.000000
H 0.537309 0.415122 0.347647 0.000000
H 0.537920 0.383899 0.369120 0.000000
H 0.569807 0.358524 0.331368 0.000000
H 0.569094 0.390247 0.309750 0.000000
H 0.536354 0.370650 0.316244 0.000000
H 0.568471 0.436694 0.319136 0.000000
H 0.596258 0.462577 0.323954 0.000000
H 0.639754 0.482901 0.385835 0.000000
H 0.612174 0.488053 0.360238 0.000000
H 0.670627 0.456852 0.348109 0.000000
H 0.642922 0.461915 0.322012 0.000000
H 0.661189 0.492623 0.336797 0.000000
H 0.671335 0.417166 0.415417 0.000000
H 0.670817 0.448774 0.394992 0.000000
H 0.640184 0.397031 0.445350 0.000000
H 0.612446 0.371418 0.441874 0.000000
H 0.661242 0.347556 0.437780 0.000000
H 0.642332 0.343901 0.404205 0.000000
H 0.670285 0.370011 0.407628 0.000000
H 0.398820 0.326291 0.531987 0.000000
H 0.424826 0.320640 0.559504 0.000000
H 0.454199 0.370101 0.613491 0.000000
H 0.455772 0.348411 0.582435 0.000000
H 0.419959 0.333391 0.637360 0.000000
H 0.453614 0.317330 0.627157 0.000000
H 0.421821 0.311545 0.605854 0.000000
H 0.420218 0.379350 0.645458 0.000000
H 0.395261 0.408162 0.648967 0.000000
H 0.379901 0.443983 0.623017 0.000000
H 0.353696 0.448057 0.595918 0.000000
H 0.329763 0.439909 0.643982 0.000000
H 0.348235 0.406157 0.648213 0.000000
H 0.321844 0.410148 0.620602 0.000000
H 0.325123 0.398621 0.542267 0.000000
H 0.323307 0.418847 0.573945 0.000000
H 0.357448 0.388826 0.509708 0.000000
H 0.384670 0.362620 0.505863 0.000000
H 0.352083 0.325201 0.530856 0.000000
H 0.335411 0.340153 0.499328 0.000000
H 0.324723 0.351863 0.534615 0.000000
H 0.566767 0.558333 0.683954 0.000000
H 0.592626 0.530398 0.679812 0.000000
H 0.540830 0.612412 0.632620 0.000000
H 0.537639 0.581547 0.654383 0.000000
H 0.569506 0.604833 0.693086 0.000000
H 0.538417 0.626491 0.685162 0.000000
H 0.573141 0.636145 0.671173 0.000000
H 0.575672 0.643838 0.625120 0.000000
H 0.602334 0.646876 0.597830 0.000000
H 0.619056 0.620518 0.562820 0.000000
H 0.644943 0.592942 0.560166 0.000000
H 0.669310 0.640576 0.569342 0.000000
H 0.675254 0.617236 0.599596 0.000000
H 0.649196 0.645345 0.602068 0.000000
H 0.669609 0.538451 0.610770 0.000000
H 0.673398 0.570392 0.591230 0.000000
H 0.635987 0.506762 0.619041 0.000000
H 0.607546 0.503751 0.644044 0.000000
H 0.639123 0.528010 0.682787 0.000000
H 0.667684 0.531006 0.657327 0.000000
H 0.655666 0.496023 0.668669 0.000000
H 0.444277 0.516182 0.311490 0.000000
H 0.482193 0.478173 0.305319 0.000000
H 0.527668 0.458035 0.315432 0.000000
H 0.534650 0.519370 0.371102 0.000000
H 0.496313 0.557820 0.377281 0.000000
H 0.426555 0.559333 0.332322 0.000000
H 0.320380 0.529461 0.481584 0.000000
H 0.318237 0.483604 0.511154 0.000000
H 0.384691 0.442700 0.537894 0.000000
H 0.411788 0.480835 0.513159 0.000000
H 0.413897 0.526231 0.483799 0.000000
H 0.390392 0.565948 0.457783 0.000000
H 0.527816 0.693567 0.478741 0.000000
H 0.565888 0.684812 0.516091 0.000000
H 0.583022 0.662537 0.558619 0.000000
H 0.510687 0.621792 0.557970 0.000000
H 0.472274 0.630494 0.520095 0.000000
H 0.481324 0.686403 0.459290 0.000000
H 0.513175 0.304566 0.522316 0.000000
H 0.553270 0.310536 0.486551 0.000000
H 0.573727 0.331469 0.444837 0.000000
H 0.504618 0.377497 0.442709 0.000000
H 0.464154 0.371578 0.478966 0.000000
H 0.466689 0.315359 0.540030 0.000000
H 0.586980 0.511777 0.523929 0.000000
H 0.586772 0.482614 0.478363 0.000000
H 0.612083 0.456360 0.439732 0.000000
H 0.680306 0.479570 0.479608 0.000000
H 0.680539 0.508839 0.525701 0.000000
H 0.612538 0.535950 0.563611 0.000000
H 0.488560 0.442889 0.622710 0.000000
H 0.529167 0.478508 0.631217 0.000000
H 0.524049 0.539993 0.686631 0.000000
H 0.476429 0.523133 0.694454 0.000000
H 0.436236 0.487964 0.685999 0.000000
H 0.416592 0.446430 0.663870 0.000000
