data_C13_PM
_symmetry_space_group_name_H-M   'P 1'
_cell_length_a 49.922389
_cell_length_b 49.922389
_cell_length_c 49.922389
_cell_angle_alpha 90.000000
_cell_angle_beta 90.000000
_cell_angle_gamma 90.000000
_symmetry_Int_Tables_number 1

loop_
_symmetry_equiv_pos_as_xyz
 'x, y, z'

loop_
_atom_site_label
_atom_site_fract_x
_atom_site_fract_y
_atom_site_fract_z
_atom_site_charge
C 0.492504 0.370937 0.391671 0.000000
N 0.505517 0.397131 0.394247 0.000000
C 0.471393 0.365485 0.412951 0.000000
C 0.477755 0.349712 0.435530 0.000000
C 0.457609 0.343427 0.454397 0.000000
C 0.431355 0.353344 0.451060 0.000000
C 0.425097 0.368919 0.428303 0.000000
C 0.445173 0.375488 0.409517 0.000000
C 0.438433 0.392887 0.385483 0.000000
C 0.428808 0.376867 0.360972 0.000000
C 0.396413 0.377977 0.423664 0.000000
N 0.386370 0.402252 0.436609 0.000000
C 0.409779 0.346955 0.471566 0.000000
C 0.394794 0.320586 0.465953 0.000000
C 0.463996 0.325091 0.477854 0.000000
N 0.476591 0.335755 0.502050 0.000000
C 0.506006 0.339068 0.439384 0.000000
C 0.510989 0.312161 0.425166 0.000000
C 0.346820 0.533115 0.546469 0.000000
N 0.363387 0.512849 0.533224 0.000000
C 0.362245 0.558555 0.553023 0.000000
C 0.361609 0.580433 0.535141 0.000000
C 0.375201 0.604292 0.541860 0.000000
C 0.390299 0.605916 0.565709 0.000000
C 0.390464 0.584109 0.583668 0.000000
C 0.376793 0.560243 0.577205 0.000000
C 0.377500 0.536520 0.596217 0.000000
C 0.354434 0.536465 0.616655 0.000000
C 0.404669 0.586592 0.610506 0.000000
N 0.431761 0.575387 0.610531 0.000000
C 0.406247 0.631082 0.571893 0.000000
C 0.390691 0.651951 0.588416 0.000000
C 0.373479 0.628649 0.523686 0.000000
N 0.393902 0.632889 0.503057 0.000000
C 0.346426 0.578535 0.508837 0.000000
C 0.316878 0.587050 0.510921 0.000000
C 0.643354 0.496780 0.595788 0.000000
N 0.632521 0.514901 0.575484 0.000000
C 0.621454 0.481726 0.610775 0.000000
C 0.614612 0.455480 0.602957 0.000000
C 0.595293 0.441118 0.617810 0.000000
C 0.582018 0.453265 0.639529 0.000000
C 0.589041 0.479576 0.647266 0.000000
C 0.608415 0.494027 0.632661 0.000000
C 0.615341 0.522594 0.640440 0.000000
C 0.638110 0.524475 0.661132 0.000000
C 0.575642 0.491888 0.671676 0.000000
N 0.549821 0.505504 0.668601 0.000000
C 0.560272 0.438228 0.654595 0.000000
C 0.570872 0.421280 0.678056 0.000000
C 0.589276 0.412200 0.610475 0.000000
N 0.570108 0.409584 0.588443 0.000000
C 0.627672 0.442447 0.578754 0.000000
C 0.653687 0.427266 0.585273 0.000000
C 0.578533 0.549289 0.339324 0.000000
N 0.567810 0.522121 0.342074 0.000000
C 0.575553 0.569241 0.362167 0.000000
C 0.551565 0.584094 0.364521 0.000000
C 0.549295 0.603929 0.384506 0.000000
C 0.570320 0.608016 0.402995 0.000000
C 0.594050 0.592839 0.400746 0.000000
C 0.596709 0.573332 0.380427 0.000000
C 0.622452 0.557348 0.377906 0.000000
C 0.643080 0.570630 0.359224 0.000000
C 0.617171 0.597630 0.420108 0.000000
N 0.619347 0.576423 0.440173 0.000000
C 0.567435 0.629149 0.424687 0.000000
C 0.579031 0.656537 0.416636 0.000000
C 0.524546 0.621654 0.385720 0.000000
N 0.504646 0.613060 0.405523 0.000000
C 0.528522 0.578809 0.345354 0.000000
C 0.529069 0.596549 0.320135 0.000000
C 0.392373 0.472130 0.502876 0.000000
C 0.366480 0.481176 0.496509 0.000000
C 0.353481 0.502592 0.511784 0.000000
C 0.352409 0.468644 0.475219 0.000000
O 0.327026 0.477937 0.469961 0.000000
C 0.312835 0.465818 0.448239 0.000000
C 0.364293 0.447629 0.461321 0.000000
C 0.389999 0.438335 0.467833 0.000000
C 0.400927 0.414954 0.453621 0.000000
C 0.404283 0.451017 0.488872 0.000000
O 0.429308 0.441013 0.494331 0.000000
C 0.443703 0.452257 0.516397 0.000000
C 0.529781 0.401676 0.547645 0.000000
C 0.533398 0.384439 0.569579 0.000000
C 0.552512 0.390958 0.590868 0.000000
C 0.519154 0.359871 0.570265 0.000000
O 0.523315 0.343816 0.592242 0.000000
C 0.508931 0.319053 0.593336 0.000000
C 0.502841 0.352840 0.548775 0.000000
C 0.499706 0.369721 0.526509 0.000000
C 0.484645 0.360167 0.503016 0.000000
C 0.512906 0.394867 0.526427 0.000000
O 0.508424 0.411006 0.504548 0.000000
C 0.523273 0.435442 0.502913 0.000000
C 0.542236 0.471745 0.343968 0.000000
C 0.546944 0.487027 0.367081 0.000000
C 0.558647 0.513986 0.364690 0.000000
C 0.539802 0.476167 0.392328 0.000000
O 0.545378 0.491788 0.414248 0.000000
C 0.538879 0.481203 0.440014 0.000000
C 0.527943 0.450898 0.393751 0.000000
C 0.522993 0.435763 0.370548 0.000000
C 0.509889 0.409567 0.372106 0.000000
C 0.530521 0.446460 0.345311 0.000000
O 0.525693 0.430650 0.323272 0.000000
C 0.533279 0.441084 0.297694 0.000000
C 0.483001 0.548341 0.613436 0.000000
C 0.464977 0.550007 0.634977 0.000000
C 0.438470 0.562096 0.631535 0.000000
C 0.472685 0.539495 0.660225 0.000000
O 0.454574 0.542374 0.680782 0.000000
C 0.461810 0.531659 0.706334 0.000000
C 0.497620 0.527313 0.663103 0.000000
C 0.515520 0.525304 0.641514 0.000000
C 0.541454 0.511797 0.645090 0.000000
C 0.508030 0.536283 0.616405 0.000000
O 0.526661 0.534376 0.596285 0.000000
C 0.519872 0.545389 0.570753 0.000000
C 0.465764 0.601098 0.447026 0.000000
C 0.471184 0.627121 0.437729 0.000000
C 0.492333 0.631967 0.417968 0.000000
C 0.455851 0.648819 0.447875 0.000000
O 0.461523 0.673834 0.437853 0.000000
C 0.445766 0.695782 0.447345 0.000000
C 0.436127 0.644010 0.466997 0.000000
C 0.430921 0.618099 0.476525 0.000000
C 0.410257 0.613946 0.497102 0.000000
C 0.445907 0.596347 0.466116 0.000000
O 0.439282 0.571456 0.475671 0.000000
C 0.453665 0.548969 0.465310 0.000000
C 0.631629 0.538697 0.481470 0.000000
C 0.620120 0.563819 0.486724 0.000000
C 0.616381 0.583075 0.464842 0.000000
C 0.613491 0.570595 0.513508 0.000000
O 0.601678 0.595108 0.517430 0.000000
C 0.594519 0.602167 0.544280 0.000000
C 0.619325 0.552702 0.534124 0.000000
C 0.631664 0.527983 0.528947 0.000000
C 0.639707 0.510572 0.551153 0.000000
C 0.637411 0.520775 0.502074 0.000000
O 0.648712 0.495988 0.498143 0.000000
C 0.655890 0.488915 0.471306 0.000000
H 0.508429 0.355837 0.393292 0.000000
H 0.483760 0.368219 0.371489 0.000000
H 0.455994 0.404867 0.379916 0.000000
H 0.423041 0.407586 0.391129 0.000000
H 0.424209 0.390271 0.344115 0.000000
H 0.444100 0.362527 0.354244 0.000000
H 0.410686 0.365221 0.365537 0.000000
H 0.382476 0.361938 0.429685 0.000000
H 0.392501 0.380458 0.402144 0.000000
H 0.418736 0.346185 0.491670 0.000000
H 0.395245 0.363441 0.472415 0.000000
H 0.379312 0.316942 0.481181 0.000000
H 0.408480 0.303338 0.465897 0.000000
H 0.384961 0.321019 0.446257 0.000000
H 0.477298 0.308788 0.471115 0.000000
H 0.445868 0.314566 0.484548 0.000000
H 0.520518 0.354051 0.432342 0.000000
H 0.510216 0.336720 0.460838 0.000000
H 0.531552 0.305089 0.428629 0.000000
H 0.507917 0.313777 0.403418 0.000000
H 0.497152 0.296647 0.432431 0.000000
H 0.339545 0.524093 0.565214 0.000000
H 0.328718 0.537829 0.534641 0.000000
H 0.377182 0.517869 0.584541 0.000000
H 0.396690 0.536232 0.606930 0.000000
H 0.334792 0.535973 0.606700 0.000000
H 0.355729 0.518952 0.629948 0.000000
H 0.354772 0.554553 0.629208 0.000000
H 0.406673 0.607907 0.615629 0.000000
H 0.392192 0.577739 0.626543 0.000000
H 0.424732 0.625517 0.582481 0.000000
H 0.412977 0.640287 0.553068 0.000000
H 0.403054 0.669753 0.592314 0.000000
H 0.384279 0.643762 0.607830 0.000000
H 0.372460 0.658507 0.577950 0.000000
H 0.373239 0.647040 0.535807 0.000000
H 0.354091 0.629036 0.513160 0.000000
H 0.347602 0.557970 0.501108 0.000000
H 0.356499 0.590867 0.493631 0.000000
H 0.306801 0.585469 0.491403 0.000000
H 0.305908 0.574484 0.525295 0.000000
H 0.315023 0.607862 0.517874 0.000000
H 0.657927 0.482581 0.587124 0.000000
H 0.654648 0.509177 0.610089 0.000000
H 0.620691 0.533915 0.622348 0.000000
H 0.597413 0.532597 0.648417 0.000000
H 0.642508 0.545456 0.666179 0.000000
H 0.632932 0.513941 0.679764 0.000000
H 0.656647 0.515305 0.653556 0.000000
H 0.572558 0.476459 0.687098 0.000000
H 0.589082 0.506451 0.681363 0.000000
H 0.545309 0.452518 0.662095 0.000000
H 0.549290 0.425274 0.640586 0.000000
H 0.554413 0.410874 0.688346 0.000000
H 0.581320 0.433762 0.692885 0.000000
H 0.585272 0.406110 0.671181 0.000000
H 0.607956 0.402624 0.603697 0.000000
H 0.582862 0.400748 0.628268 0.000000
H 0.613232 0.428785 0.569331 0.000000
H 0.631801 0.457710 0.563476 0.000000
H 0.668895 0.440656 0.593902 0.000000
H 0.662200 0.418056 0.567170 0.000000
H 0.650215 0.411266 0.600006 0.000000
H 0.569295 0.557476 0.321048 0.000000
H 0.599746 0.546895 0.333849 0.000000
H 0.617900 0.537087 0.370563 0.000000
H 0.631174 0.554456 0.397879 0.000000
H 0.635114 0.573103 0.338841 0.000000
H 0.648617 0.590706 0.366392 0.000000
H 0.661483 0.558602 0.357923 0.000000
H 0.636092 0.597594 0.408755 0.000000
H 0.615644 0.617580 0.429443 0.000000
H 0.546247 0.631453 0.430000 0.000000
H 0.577124 0.622216 0.443190 0.000000
H 0.600531 0.655160 0.412080 0.000000
H 0.576397 0.671306 0.432763 0.000000
H 0.569141 0.664353 0.398581 0.000000
H 0.514483 0.621224 0.366149 0.000000
H 0.530511 0.642779 0.388839 0.000000
H 0.528701 0.557659 0.339299 0.000000
H 0.509427 0.581554 0.355963 0.000000
H 0.527988 0.617943 0.325257 0.000000
H 0.547674 0.593668 0.308715 0.000000
H 0.512144 0.591891 0.306838 0.000000
H 0.402465 0.482130 0.519425 0.000000
H 0.333883 0.509203 0.503964 0.000000
H 0.293594 0.476307 0.447174 0.000000
H 0.323653 0.468292 0.429161 0.000000
H 0.309310 0.444341 0.451895 0.000000
H 0.354039 0.437094 0.445233 0.000000
H 0.421467 0.408798 0.458748 0.000000
H 0.432519 0.450031 0.535291 0.000000
H 0.448141 0.473638 0.513073 0.000000
H 0.462420 0.440854 0.517537 0.000000
H 0.541095 0.420314 0.547887 0.000000
H 0.551582 0.378223 0.608924 0.000000
H 0.514539 0.309799 0.612420 0.000000
H 0.487120 0.322388 0.592873 0.000000
H 0.514626 0.305691 0.576722 0.000000
H 0.492540 0.333654 0.547854 0.000000
H 0.481811 0.374408 0.486419 0.000000
H 0.518615 0.448947 0.519754 0.000000
H 0.545014 0.431652 0.502478 0.000000
H 0.517035 0.444810 0.484078 0.000000
H 0.548162 0.480797 0.325044 0.000000
H 0.558724 0.526526 0.382831 0.000000
H 0.549688 0.462349 0.443937 0.000000
H 0.517161 0.477699 0.442059 0.000000
H 0.545252 0.496450 0.454452 0.000000
H 0.521965 0.441954 0.412718 0.000000
H 0.503769 0.400882 0.352702 0.000000
H 0.527892 0.425567 0.283149 0.000000
H 0.554988 0.444915 0.296693 0.000000
H 0.522367 0.459685 0.292996 0.000000
H 0.476395 0.556815 0.594461 0.000000
H 0.424347 0.559153 0.648304 0.000000
H 0.465049 0.509847 0.705324 0.000000
H 0.444840 0.535938 0.719565 0.000000
H 0.479974 0.541358 0.714279 0.000000
H 0.504305 0.518879 0.682059 0.000000
H 0.552896 0.507326 0.626777 0.000000
H 0.515961 0.567077 0.572102 0.000000
H 0.502209 0.535399 0.562052 0.000000
H 0.537353 0.541828 0.557970 0.000000
H 0.477779 0.584980 0.438578 0.000000
H 0.497138 0.653231 0.414193 0.000000
H 0.424370 0.692881 0.442788 0.000000
H 0.453217 0.713442 0.436670 0.000000
H 0.448256 0.698734 0.469079 0.000000
H 0.423940 0.660023 0.475370 0.000000
H 0.409765 0.594201 0.506912 0.000000
H 0.444993 0.531382 0.475164 0.000000
H 0.475199 0.550295 0.470022 0.000000
H 0.451108 0.547149 0.443465 0.000000
H 0.636182 0.534250 0.460623 0.000000
H 0.611566 0.603798 0.470871 0.000000
H 0.585173 0.621963 0.542892 0.000000
H 0.612268 0.603294 0.557349 0.000000
H 0.580100 0.587789 0.552803 0.000000
H 0.615170 0.557331 0.555017 0.000000
H 0.652953 0.493699 0.545796 0.000000
H 0.664761 0.468896 0.472643 0.000000
H 0.638193 0.488248 0.458138 0.000000
H 0.670686 0.503003 0.462960 0.000000
