data_C15_PM
_symmetry_space_group_name_H-M   'P 1'
_cell_length_a 54.723039
_cell_length_b 54.723039
_cell_length_c 54.723039
_cell_angle_alpha 90.000000
_cell_angle_beta 90.000000
_cell_angle_gamma 90.000000
_symmetry_Int_Tables_number 1

loop_
_symmetry_equiv_pos_as_xyz
 'x, y, z'

loop_
_atom_site_label
_atom_site_fract_x
_atom_site_fract_y
_atom_site_fract_z
_atom_site_charge
C 0.471904 0.554330 0.299810 0.000000
N 0.482023 0.533858 0.313665 0.000000
C 0.472160 0.577948 0.314532 0.000000
C 0.494174 0.591194 0.316809 0.000000
C 0.494335 0.613412 0.329844 0.000000
C 0.472887 0.621927 0.341426 0.000000
C 0.450919 0.608731 0.338760 0.000000
C 0.450544 0.586512 0.325620 0.000000
C 0.426799 0.572341 0.323334 0.000000
C 0.412313 0.578634 0.300081 0.000000
C 0.427235 0.618730 0.349455 0.000000
N 0.419354 0.605805 0.371449 0.000000
C 0.473744 0.645286 0.356400 0.000000
C 0.467462 0.668428 0.341742 0.000000
C 0.517588 0.628559 0.330892 0.000000
N 0.534993 0.625048 0.350870 0.000000
C 0.517429 0.581685 0.305034 0.000000
C 0.521006 0.590543 0.278580 0.000000
C 0.519644 0.317018 0.408682 0.000000
N 0.509395 0.341131 0.403401 0.000000
C 0.522613 0.312261 0.435923 0.000000
C 0.502580 0.303444 0.449573 0.000000
C 0.505785 0.297503 0.474440 0.000000
C 0.528615 0.301293 0.485914 0.000000
C 0.548461 0.310235 0.472150 0.000000
C 0.545426 0.316152 0.447221 0.000000
C 0.566792 0.326429 0.432807 0.000000
C 0.582385 0.306662 0.420282 0.000000
C 0.573490 0.313148 0.483942 0.000000
N 0.578523 0.338288 0.491448 0.000000
C 0.531622 0.295564 0.512906 0.000000
C 0.540185 0.269271 0.517947 0.000000
C 0.484783 0.286625 0.488996 0.000000
N 0.468813 0.302632 0.503267 0.000000
C 0.477774 0.300412 0.437486 0.000000
C 0.473718 0.275004 0.426145 0.000000
C 0.631452 0.589347 0.632030 0.000000
N 0.606399 0.580145 0.633087 0.000000
C 0.645748 0.579378 0.610321 0.000000
C 0.647938 0.593396 0.588824 0.000000
C 0.662404 0.584646 0.569329 0.000000
C 0.674012 0.561709 0.570949 0.000000
C 0.671784 0.547829 0.592608 0.000000
C 0.657279 0.556380 0.612125 0.000000
C 0.654335 0.541106 0.635104 0.000000
C 0.673949 0.546283 0.654605 0.000000
C 0.685684 0.523904 0.595208 0.000000
N 0.674628 0.500946 0.587139 0.000000
C 0.689180 0.551976 0.549820 0.000000
C 0.716092 0.560085 0.550651 0.000000
C 0.665847 0.600462 0.546722 0.000000
N 0.645214 0.599020 0.529815 0.000000
C 0.635244 0.617957 0.586574 0.000000
C 0.650864 0.639412 0.595861 0.000000
C 0.373464 0.538353 0.658252 0.000000
N 0.399452 0.540028 0.652273 0.000000
C 0.358414 0.528700 0.636961 0.000000
C 0.355412 0.503249 0.633990 0.000000
C 0.340584 0.494402 0.614902 0.000000
C 0.329909 0.510696 0.597998 0.000000
C 0.333130 0.536059 0.601068 0.000000
C 0.347555 0.545176 0.620420 0.000000
C 0.351059 0.572546 0.623345 0.000000
C 0.331506 0.584536 0.639614 0.000000
C 0.320912 0.553815 0.583460 0.000000
N 0.337655 0.561975 0.564309 0.000000
C 0.314953 0.500670 0.576897 0.000000
C 0.287564 0.498288 0.582775 0.000000
C 0.335809 0.467115 0.612555 0.000000
N 0.352528 0.455205 0.595453 0.000000
C 0.368100 0.485693 0.651325 0.000000
C 0.352898 0.479430 0.674123 0.000000
C 0.500173 0.489954 0.338057 0.000000
C 0.507364 0.468137 0.348821 0.000000
C 0.490853 0.448502 0.351561 0.000000
C 0.466704 0.451777 0.343380 0.000000
C 0.459508 0.473603 0.332451 0.000000
C 0.476115 0.492948 0.329466 0.000000
C 0.468195 0.515236 0.316867 0.000000
C 0.498839 0.424956 0.362097 0.000000
C 0.522074 0.415419 0.356604 0.000000
C 0.529282 0.392770 0.365638 0.000000
C 0.513684 0.378950 0.380640 0.000000
C 0.521754 0.354801 0.388956 0.000000
C 0.490591 0.388588 0.386583 0.000000
C 0.483343 0.411116 0.377394 0.000000
C 0.541712 0.591535 0.408365 0.000000
C 0.557780 0.588640 0.427950 0.000000
C 0.580592 0.600491 0.428104 0.000000
C 0.586606 0.615470 0.407981 0.000000
C 0.570545 0.618549 0.388624 0.000000
C 0.547768 0.606592 0.388481 0.000000
C 0.530461 0.609930 0.368168 0.000000
C 0.598026 0.597792 0.448571 0.000000
C 0.623289 0.596048 0.444071 0.000000
C 0.639896 0.594618 0.463284 0.000000
C 0.631939 0.595173 0.487691 0.000000
C 0.650272 0.595403 0.507243 0.000000
C 0.606660 0.596448 0.492329 0.000000
C 0.590081 0.597586 0.473110 0.000000
C 0.403050 0.623341 0.434031 0.000000
C 0.392424 0.614420 0.455372 0.000000
C 0.384088 0.590146 0.456747 0.000000
C 0.387510 0.574934 0.436198 0.000000
C 0.398306 0.583732 0.415004 0.000000
C 0.405952 0.608250 0.413470 0.000000
C 0.415699 0.618564 0.390731 0.000000
C 0.371426 0.581113 0.478804 0.000000
C 0.379141 0.587937 0.502441 0.000000
C 0.366630 0.580126 0.523098 0.000000
C 0.345706 0.565344 0.520857 0.000000
C 0.331390 0.557627 0.542169 0.000000
C 0.338075 0.558311 0.497371 0.000000
C 0.350798 0.565914 0.476690 0.000000
C 0.619840 0.477778 0.556396 0.000000
C 0.609592 0.456085 0.547752 0.000000
C 0.621459 0.433551 0.551276 0.000000
C 0.643968 0.433602 0.563891 0.000000
C 0.654240 0.455167 0.572357 0.000000
C 0.642376 0.477697 0.568700 0.000000
C 0.653423 0.500708 0.577184 0.000000
C 0.611260 0.410353 0.541895 0.000000
C 0.613739 0.388555 0.555318 0.000000
C 0.605222 0.366451 0.546034 0.000000
C 0.594083 0.365267 0.522930 0.000000
C 0.586721 0.341422 0.513165 0.000000
C 0.591083 0.387074 0.509614 0.000000
C 0.599435 0.409147 0.518987 0.000000
C 0.387087 0.428117 0.564400 0.000000
C 0.402163 0.413065 0.550587 0.000000
C 0.410707 0.390545 0.559835 0.000000
C 0.403837 0.383921 0.583722 0.000000
C 0.388895 0.399068 0.597652 0.000000
C 0.380087 0.421249 0.588185 0.000000
C 0.363544 0.436036 0.603170 0.000000
C 0.426200 0.374193 0.544949 0.000000
C 0.444229 0.383413 0.529108 0.000000
C 0.458868 0.367679 0.515415 0.000000
C 0.455871 0.342236 0.516961 0.000000
C 0.471606 0.325876 0.502567 0.000000
C 0.437690 0.332949 0.532615 0.000000
C 0.423219 0.348607 0.546321 0.000000
C 0.451190 0.548050 0.640635 0.000000
C 0.475838 0.552999 0.637181 0.000000
C 0.486595 0.574629 0.646281 0.000000
C 0.471507 0.591113 0.659020 0.000000
C 0.446763 0.586283 0.662329 0.000000
C 0.436215 0.564698 0.653294 0.000000
C 0.410161 0.560183 0.657505 0.000000
C 0.512823 0.579873 0.642592 0.000000
C 0.521253 0.604045 0.639965 0.000000
C 0.546028 0.609000 0.637076 0.000000
C 0.563317 0.590019 0.636521 0.000000
C 0.589304 0.596118 0.634203 0.000000
C 0.555005 0.565782 0.638808 0.000000
C 0.530284 0.560877 0.641813 0.000000
H 0.453366 0.550303 0.292980 0.000000
H 0.483492 0.556641 0.283533 0.000000
H 0.415515 0.575709 0.339559 0.000000
H 0.430654 0.552636 0.323666 0.000000
H 0.422889 0.574655 0.283470 0.000000
H 0.395175 0.568180 0.299203 0.000000
H 0.407636 0.598166 0.299452 0.000000
H 0.428664 0.638587 0.352623 0.000000
H 0.412583 0.616334 0.335847 0.000000
H 0.461277 0.643693 0.372067 0.000000
H 0.491992 0.647349 0.364515 0.000000
H 0.480028 0.670879 0.326264 0.000000
H 0.448913 0.667479 0.334091 0.000000
H 0.468604 0.684827 0.353291 0.000000
H 0.513115 0.648179 0.330960 0.000000
H 0.528151 0.626164 0.313959 0.000000
H 0.533288 0.587178 0.316065 0.000000
H 0.517319 0.561628 0.305553 0.000000
H 0.521942 0.610587 0.277568 0.000000
H 0.537980 0.583160 0.270776 0.000000
H 0.505797 0.584834 0.266758 0.000000
H 0.537148 0.314120 0.399061 0.000000
H 0.506842 0.303515 0.401070 0.000000
H 0.560017 0.339321 0.419001 0.000000
H 0.578264 0.337468 0.445022 0.000000
H 0.590007 0.293745 0.433651 0.000000
H 0.571520 0.295834 0.407311 0.000000
H 0.597721 0.314868 0.410219 0.000000
H 0.575741 0.300182 0.499243 0.000000
H 0.587598 0.308214 0.470475 0.000000
H 0.514267 0.298838 0.522449 0.000000
H 0.544574 0.308522 0.521127 0.000000
H 0.557985 0.265580 0.509398 0.000000
H 0.541928 0.265902 0.537676 0.000000
H 0.527242 0.255834 0.510502 0.000000
H 0.491746 0.272900 0.501951 0.000000
H 0.472632 0.276075 0.476942 0.000000
H 0.475552 0.314575 0.423436 0.000000
H 0.463309 0.304032 0.450950 0.000000
H 0.487468 0.270921 0.412074 0.000000
H 0.475060 0.260478 0.439957 0.000000
H 0.455586 0.273769 0.417592 0.000000
H 0.640483 0.583452 0.648999 0.000000
H 0.631993 0.609524 0.632185 0.000000
H 0.654750 0.521606 0.630302 0.000000
H 0.636071 0.544251 0.642813 0.000000
H 0.671071 0.534873 0.670884 0.000000
H 0.692425 0.542589 0.647638 0.000000
H 0.673675 0.565512 0.660423 0.000000
H 0.703339 0.525081 0.585624 0.000000
H 0.690897 0.520986 0.614400 0.000000
H 0.680973 0.557738 0.532419 0.000000
H 0.688289 0.531920 0.549586 0.000000
H 0.726398 0.552511 0.535158 0.000000
H 0.725020 0.554004 0.567586 0.000000
H 0.717745 0.580095 0.550049 0.000000
H 0.683303 0.596177 0.537558 0.000000
H 0.667253 0.619701 0.552445 0.000000
H 0.617868 0.617514 0.596609 0.000000
H 0.630107 0.620997 0.567417 0.000000
H 0.668222 0.640750 0.585834 0.000000
H 0.641157 0.656875 0.593722 0.000000
H 0.655543 0.637229 0.615276 0.000000
H 0.371863 0.525676 0.673765 0.000000
H 0.366113 0.556003 0.664765 0.000000
H 0.369263 0.576264 0.630926 0.000000
H 0.351132 0.581165 0.605223 0.000000
H 0.313046 0.581673 0.632214 0.000000
H 0.334533 0.604340 0.641158 0.000000
H 0.331612 0.576758 0.658139 0.000000
H 0.315118 0.570208 0.593553 0.000000
H 0.304098 0.545757 0.575748 0.000000
H 0.317324 0.512379 0.560779 0.000000
H 0.322370 0.482841 0.571442 0.000000
H 0.279485 0.516077 0.587454 0.000000
H 0.277430 0.490759 0.567144 0.000000
H 0.284477 0.486198 0.598524 0.000000
H 0.336145 0.458276 0.630710 0.000000
H 0.317218 0.464309 0.605430 0.000000
H 0.385761 0.493500 0.656818 0.000000
H 0.372744 0.468791 0.641559 0.000000
H 0.335452 0.470798 0.669149 0.000000
H 0.362846 0.466835 0.686212 0.000000
H 0.348395 0.495891 0.684729 0.000000
H 0.512964 0.505090 0.335988 0.000000
H 0.526014 0.466211 0.355604 0.000000
H 0.453696 0.436754 0.344923 0.000000
H 0.440812 0.475615 0.325749 0.000000
H 0.449215 0.514828 0.309720 0.000000
H 0.534249 0.425551 0.344506 0.000000
H 0.547202 0.385431 0.360785 0.000000
H 0.539578 0.348701 0.381424 0.000000
H 0.478587 0.377987 0.398439 0.000000
H 0.465473 0.418452 0.382342 0.000000
H 0.524190 0.581970 0.408433 0.000000
H 0.552843 0.576616 0.443071 0.000000
H 0.603986 0.625240 0.407991 0.000000
H 0.575089 0.630404 0.373273 0.000000
H 0.513529 0.598903 0.368840 0.000000
H 0.629879 0.595504 0.425268 0.000000
H 0.659429 0.593268 0.459386 0.000000
H 0.669442 0.592964 0.501040 0.000000
H 0.600442 0.596919 0.511255 0.000000
H 0.570590 0.599151 0.477025 0.000000
H 0.408830 0.642426 0.433084 0.000000
H 0.389715 0.626615 0.470904 0.000000
H 0.381767 0.555863 0.437147 0.000000
H 0.400877 0.571967 0.399133 0.000000
H 0.419148 0.638554 0.391012 0.000000
H 0.395435 0.599248 0.504484 0.000000
H 0.372709 0.585301 0.541355 0.000000
H 0.314162 0.547837 0.537823 0.000000
H 0.321788 0.546941 0.495365 0.000000
H 0.344249 0.560710 0.458598 0.000000
H 0.610261 0.495066 0.553594 0.000000
H 0.591937 0.456555 0.538500 0.000000
H 0.653768 0.416424 0.566405 0.000000
H 0.671811 0.455173 0.581744 0.000000
H 0.642560 0.517515 0.574326 0.000000
H 0.622174 0.389051 0.573368 0.000000
H 0.607351 0.349744 0.556755 0.000000
H 0.589302 0.325753 0.525799 0.000000
H 0.582459 0.386170 0.491674 0.000000
H 0.597543 0.425765 0.508130 0.000000
H 0.380220 0.445311 0.557036 0.000000
H 0.407000 0.418417 0.532001 0.000000
H 0.410703 0.366930 0.591558 0.000000
H 0.383864 0.393660 0.616199 0.000000
H 0.360610 0.429131 0.622029 0.000000
H 0.447218 0.403092 0.528009 0.000000
H 0.473011 0.375166 0.503482 0.000000
H 0.485887 0.334767 0.491357 0.000000
H 0.435240 0.313202 0.533575 0.000000
H 0.408931 0.341068 0.558003 0.000000
H 0.442949 0.531409 0.633412 0.000000
H 0.486971 0.540184 0.626732 0.000000
H 0.479384 0.607668 0.666829 0.000000
H 0.435402 0.599276 0.672363 0.000000
H 0.400028 0.575578 0.666004 0.000000
H 0.508171 0.619074 0.639757 0.000000
H 0.552169 0.627890 0.635076 0.000000
H 0.593448 0.615979 0.633855 0.000000
H 0.568409 0.551044 0.638496 0.000000
H 0.524323 0.542013 0.644236 0.000000
