data_C18_PM
_symmetry_space_group_name_H-M   'P 1'
_cell_length_a 57.437613
_cell_length_b 57.437613
_cell_length_c 57.437613
_cell_angle_alpha 90.000000
_cell_angle_beta 90.000000
_cell_angle_gamma 90.000000
_symmetry_Int_Tables_number 1

loop_
_symmetry_equiv_pos_as_xyz
 'x, y, z'

loop_
_atom_site_label
_atom_site_fract_x
_atom_site_fract_y
_atom_site_fract_z
_atom_site_charge
C 0.692809 0.410331 0.430860 0.000000
N 0.669876 0.400058 0.435230 0.000000
C 0.696010 0.436432 0.433646 0.000000
C 0.692304 0.451338 0.414437 0.000000
C 0.696117 0.475453 0.416925 0.000000
C 0.702625 0.484843 0.438694 0.000000
C 0.706130 0.469845 0.457790 0.000000
C 0.702513 0.445659 0.455446 0.000000
C 0.705894 0.429695 0.476233 0.000000
C 0.731010 0.420617 0.478537 0.000000
C 0.714034 0.479651 0.481103 0.000000
N 0.694506 0.483505 0.496977 0.000000
C 0.706084 0.510915 0.441217 0.000000
C 0.731258 0.518725 0.436416 0.000000
C 0.693376 0.491537 0.396024 0.000000
N 0.670712 0.503082 0.395746 0.000000
C 0.684549 0.441225 0.391257 0.000000
C 0.704940 0.434474 0.375251 0.000000
C 0.552808 0.579170 0.706751 0.000000
N 0.566935 0.571848 0.686835 0.000000
C 0.526439 0.579523 0.704710 0.000000
C 0.513206 0.560000 0.711594 0.000000
C 0.488689 0.561019 0.710588 0.000000
C 0.477395 0.580950 0.701770 0.000000
C 0.490770 0.600377 0.694926 0.000000
C 0.515285 0.599612 0.695979 0.000000
C 0.529768 0.620200 0.687891 0.000000
C 0.534612 0.638125 0.707192 0.000000
C 0.478533 0.622282 0.686410 0.000000
N 0.472362 0.620711 0.661786 0.000000
C 0.451056 0.581428 0.699613 0.000000
C 0.438658 0.590829 0.721444 0.000000
C 0.474229 0.540552 0.719201 0.000000
N 0.467059 0.525195 0.700258 0.000000
C 0.525420 0.538175 0.720174 0.000000
C 0.529508 0.537949 0.746649 0.000000
C 0.365400 0.608980 0.354585 0.000000
N 0.365003 0.585021 0.363303 0.000000
C 0.385450 0.624953 0.361186 0.000000
C 0.405930 0.625026 0.347539 0.000000
C 0.424120 0.640533 0.353085 0.000000
C 0.422242 0.655469 0.372529 0.000000
C 0.401714 0.655331 0.385987 0.000000
C 0.383495 0.639710 0.380709 0.000000
C 0.361862 0.638919 0.395903 0.000000
C 0.342503 0.655616 0.387853 0.000000
C 0.398928 0.672429 0.406060 0.000000
N 0.405559 0.662419 0.428497 0.000000
C 0.442270 0.671591 0.378702 0.000000
C 0.440663 0.695606 0.366938 0.000000
C 0.445884 0.641391 0.337953 0.000000
N 0.464850 0.627410 0.347548 0.000000
C 0.408100 0.608555 0.326950 0.000000
C 0.399670 0.619117 0.303815 0.000000
C 0.431267 0.287044 0.476497 0.000000
N 0.453663 0.298494 0.472295 0.000000
C 0.411478 0.300811 0.487372 0.000000
C 0.409156 0.301595 0.511806 0.000000
C 0.390333 0.313791 0.521820 0.000000
C 0.374380 0.325868 0.507620 0.000000
C 0.376796 0.324936 0.483179 0.000000
C 0.395539 0.312809 0.472998 0.000000
C 0.398596 0.312392 0.446742 0.000000
C 0.385729 0.292095 0.434894 0.000000
C 0.359020 0.337188 0.467835 0.000000
N 0.364609 0.361810 0.464663 0.000000
C 0.354672 0.339812 0.518363 0.000000
C 0.332375 0.325526 0.522365 0.000000
C 0.387210 0.313830 0.548142 0.000000
N 0.401133 0.331913 0.559409 0.000000
C 0.426662 0.289184 0.527229 0.000000
C 0.419851 0.263823 0.532556 0.000000
C 0.595889 0.558822 0.648654 0.000000
C 0.609224 0.551836 0.629820 0.000000
C 0.598637 0.541828 0.609902 0.000000
C 0.612711 0.534720 0.590915 0.000000
C 0.625907 0.528933 0.575259 0.000000
C 0.642012 0.522632 0.557671 0.000000
C 0.660725 0.537627 0.552206 0.000000
C 0.676929 0.531313 0.535388 0.000000
C 0.675252 0.509878 0.523670 0.000000
C 0.693269 0.503523 0.506760 0.000000
C 0.656497 0.494984 0.528944 0.000000
C 0.640099 0.501250 0.545538 0.000000
C 0.574195 0.539272 0.609653 0.000000
C 0.560907 0.546552 0.628599 0.000000
C 0.571482 0.556345 0.648382 0.000000
C 0.557310 0.563845 0.668351 0.000000
C 0.504368 0.583004 0.324218 0.000000
C 0.523694 0.569530 0.329726 0.000000
C 0.533569 0.570628 0.352236 0.000000
C 0.553738 0.557584 0.357680 0.000000
C 0.571650 0.546868 0.361842 0.000000
C 0.592811 0.535018 0.366102 0.000000
C 0.603049 0.521104 0.348588 0.000000
C 0.624234 0.510122 0.352561 0.000000
C 0.635919 0.512565 0.373941 0.000000
C 0.658591 0.501299 0.377097 0.000000
C 0.625594 0.526162 0.391554 0.000000
C 0.604462 0.537188 0.387758 0.000000
C 0.523128 0.585438 0.368998 0.000000
C 0.503872 0.598846 0.363322 0.000000
C 0.494252 0.597965 0.340769 0.000000
C 0.474419 0.612511 0.333956 0.000000
C 0.498137 0.320078 0.464131 0.000000
C 0.519135 0.331466 0.460739 0.000000
C 0.521853 0.355150 0.467176 0.000000
C 0.543460 0.366471 0.463591 0.000000
C 0.562446 0.375478 0.460158 0.000000
C 0.584757 0.384971 0.455704 0.000000
C 0.589395 0.408969 0.458441 0.000000
C 0.611479 0.417791 0.453778 0.000000
C 0.629642 0.403139 0.446353 0.000000
C 0.652828 0.412941 0.441724 0.000000
C 0.625028 0.379190 0.443614 0.000000
C 0.603097 0.370247 0.448175 0.000000
C 0.502621 0.366847 0.477087 0.000000
C 0.481605 0.355244 0.480450 0.000000
C 0.478971 0.331756 0.474058 0.000000
C 0.456624 0.319902 0.477908 0.000000
C 0.481138 0.658022 0.610775 0.000000
C 0.475536 0.660420 0.587370 0.000000
C 0.462199 0.643166 0.575985 0.000000
C 0.455744 0.646147 0.552419 0.000000
C 0.449864 0.649766 0.532289 0.000000
C 0.442899 0.655121 0.509298 0.000000
C 0.427552 0.640387 0.496780 0.000000
C 0.420244 0.646264 0.474542 0.000000
C 0.428012 0.666966 0.463912 0.000000
C 0.420208 0.674037 0.440695 0.000000
C 0.443479 0.681452 0.476182 0.000000
C 0.450842 0.675763 0.498506 0.000000
C 0.455091 0.623340 0.588833 0.000000
C 0.460731 0.621128 0.612200 0.000000
C 0.473701 0.638545 0.623620 0.000000
C 0.479200 0.637278 0.648501 0.000000
C 0.451985 0.491973 0.665095 0.000000
C 0.444550 0.474951 0.649673 0.000000
C 0.449152 0.451131 0.654051 0.000000
C 0.440683 0.433595 0.638841 0.000000
C 0.432765 0.418297 0.626374 0.000000
C 0.422517 0.400533 0.612591 0.000000
C 0.398188 0.397054 0.613171 0.000000
C 0.388082 0.379422 0.600031 0.000000
C 0.401713 0.364803 0.585892 0.000000
C 0.390287 0.346135 0.572751 0.000000
C 0.425965 0.368382 0.585157 0.000000
C 0.436227 0.385881 0.598281 0.000000
C 0.461735 0.445085 0.674268 0.000000
C 0.469051 0.462271 0.689678 0.000000
C 0.464207 0.485883 0.685459 0.000000
C 0.471422 0.503436 0.702532 0.000000
C 0.364547 0.537512 0.378424 0.000000
C 0.364774 0.514936 0.386858 0.000000
C 0.380752 0.508198 0.404429 0.000000
C 0.380504 0.484983 0.412733 0.000000
C 0.379029 0.464698 0.418985 0.000000
C 0.376399 0.441025 0.425336 0.000000
C 0.369297 0.424562 0.408484 0.000000
C 0.365935 0.401430 0.414697 0.000000
C 0.369195 0.393967 0.437792 0.000000
C 0.364542 0.369606 0.443750 0.000000
C 0.376536 0.410286 0.454570 0.000000
C 0.380219 0.433362 0.448471 0.000000
C 0.396511 0.524965 0.413056 0.000000
C 0.396310 0.547569 0.404284 0.000000
C 0.380340 0.554229 0.386967 0.000000
C 0.380367 0.578182 0.377988 0.000000
H 0.697766 0.404789 0.413203 0.000000
H 0.705027 0.400874 0.442198 0.000000
H 0.693896 0.414847 0.474985 0.000000
H 0.700794 0.438913 0.492189 0.000000
H 0.743525 0.434980 0.480409 0.000000
H 0.732804 0.409210 0.493798 0.000000
H 0.736279 0.410664 0.463060 0.000000
H 0.724492 0.495597 0.478639 0.000000
H 0.725651 0.466991 0.489572 0.000000
H 0.700962 0.516408 0.458806 0.000000
H 0.694061 0.520043 0.429488 0.000000
H 0.733043 0.537698 0.438211 0.000000
H 0.743575 0.510433 0.448493 0.000000
H 0.736800 0.513952 0.418726 0.000000
H 0.696794 0.482083 0.379636 0.000000
H 0.706627 0.505346 0.397007 0.000000
H 0.673518 0.425901 0.394323 0.000000
H 0.673212 0.453716 0.382247 0.000000
H 0.715885 0.449626 0.371145 0.000000
H 0.716289 0.421513 0.383580 0.000000
H 0.698617 0.427067 0.358772 0.000000
H 0.559274 0.596530 0.711632 0.000000
H 0.558266 0.568043 0.721369 0.000000
H 0.521050 0.628830 0.673222 0.000000
H 0.546368 0.613943 0.680740 0.000000
H 0.518358 0.645419 0.714181 0.000000
H 0.543906 0.630168 0.721905 0.000000
H 0.545273 0.652600 0.700620 0.000000
H 0.489077 0.637917 0.690178 0.000000
H 0.462163 0.624454 0.696119 0.000000
H 0.446225 0.591963 0.684402 0.000000
H 0.444790 0.563787 0.695719 0.000000
H 0.419673 0.590817 0.719043 0.000000
H 0.442634 0.580279 0.736916 0.000000
H 0.444064 0.608749 0.725465 0.000000
H 0.458189 0.547241 0.727263 0.000000
H 0.483528 0.530980 0.733051 0.000000
H 0.515320 0.522740 0.715131 0.000000
H 0.542180 0.536249 0.711145 0.000000
H 0.540154 0.552870 0.752146 0.000000
H 0.512997 0.539062 0.756257 0.000000
H 0.538493 0.521953 0.752103 0.000000
H 0.348674 0.616727 0.359812 0.000000
H 0.364037 0.607641 0.335518 0.000000
H 0.366721 0.642841 0.413979 0.000000
H 0.355009 0.621054 0.396328 0.000000
H 0.327244 0.654456 0.399343 0.000000
H 0.336794 0.651642 0.370024 0.000000
H 0.348480 0.673800 0.387822 0.000000
H 0.408505 0.688706 0.402419 0.000000
H 0.380478 0.677379 0.407465 0.000000
H 0.443049 0.673850 0.397673 0.000000
H 0.458783 0.663149 0.374052 0.000000
H 0.440456 0.694052 0.347861 0.000000
H 0.455549 0.706628 0.371765 0.000000
H 0.424627 0.704794 0.371905 0.000000
H 0.452200 0.659461 0.337125 0.000000
H 0.441782 0.636398 0.319845 0.000000
H 0.398322 0.592510 0.330515 0.000000
H 0.426287 0.602920 0.325133 0.000000
H 0.409629 0.634806 0.299242 0.000000
H 0.401456 0.606560 0.289481 0.000000
H 0.381280 0.624307 0.304848 0.000000
H 0.435232 0.271583 0.487101 0.000000
H 0.425874 0.279722 0.459633 0.000000
H 0.392632 0.328961 0.439285 0.000000
H 0.417218 0.311489 0.442458 0.000000
H 0.388460 0.292330 0.415949 0.000000
H 0.391808 0.275207 0.441528 0.000000
H 0.366896 0.292919 0.438192 0.000000
H 0.341841 0.336393 0.476273 0.000000
H 0.357055 0.328058 0.451019 0.000000
H 0.350843 0.354891 0.507250 0.000000
H 0.360459 0.347317 0.534965 0.000000
H 0.325699 0.318251 0.505965 0.000000
H 0.335539 0.310731 0.534086 0.000000
H 0.318570 0.336335 0.530046 0.000000
H 0.368597 0.315238 0.552765 0.000000
H 0.393162 0.297042 0.555182 0.000000
H 0.443905 0.289510 0.518950 0.000000
H 0.428761 0.298936 0.543544 0.000000
H 0.418272 0.253500 0.516518 0.000000
H 0.402937 0.262833 0.541466 0.000000
H 0.432905 0.255411 0.543740 0.000000
H 0.603980 0.566421 0.664047 0.000000
H 0.628093 0.553866 0.630112 0.000000
H 0.662293 0.554164 0.561377 0.000000
H 0.691339 0.543046 0.531342 0.000000
H 0.706351 0.517284 0.503131 0.000000
H 0.655231 0.478414 0.519768 0.000000
H 0.625635 0.489649 0.549593 0.000000
H 0.565827 0.531630 0.594432 0.000000
H 0.541998 0.544577 0.628137 0.000000
H 0.538218 0.562201 0.666457 0.000000
H 0.496989 0.582130 0.306710 0.000000
H 0.531517 0.558123 0.316736 0.000000
H 0.594199 0.519230 0.331908 0.000000
H 0.632054 0.499540 0.338828 0.000000
H 0.664940 0.491166 0.361908 0.000000
H 0.634666 0.527912 0.408137 0.000000
H 0.596597 0.547811 0.401381 0.000000
H 0.530591 0.586255 0.386430 0.000000
H 0.495912 0.610390 0.376118 0.000000
H 0.468308 0.610117 0.315775 0.000000
H 0.496023 0.301868 0.459208 0.000000
H 0.533888 0.322317 0.453060 0.000000
H 0.575456 0.420498 0.464181 0.000000
H 0.614822 0.436389 0.455935 0.000000
H 0.654622 0.431944 0.444239 0.000000
H 0.639155 0.367897 0.437849 0.000000
H 0.599646 0.351707 0.446018 0.000000
H 0.504441 0.385061 0.482097 0.000000
H 0.466891 0.364494 0.488172 0.000000
H 0.442692 0.330500 0.485926 0.000000
H 0.491285 0.671574 0.619443 0.000000
H 0.481170 0.675686 0.577611 0.000000
H 0.421433 0.624407 0.504994 0.000000
H 0.408307 0.635071 0.464920 0.000000
H 0.427645 0.690674 0.434256 0.000000
H 0.449642 0.697501 0.468048 0.000000
H 0.462699 0.687167 0.507962 0.000000
H 0.444917 0.609905 0.580100 0.000000
H 0.455113 0.606003 0.622202 0.000000
H 0.489564 0.652070 0.655391 0.000000
H 0.448354 0.510325 0.661868 0.000000
H 0.434919 0.479718 0.634027 0.000000
H 0.387497 0.408259 0.624134 0.000000
H 0.369259 0.376794 0.600737 0.000000
H 0.371179 0.344838 0.575363 0.000000
H 0.436470 0.357041 0.574137 0.000000
H 0.455015 0.388524 0.597730 0.000000
H 0.465412 0.426801 0.677767 0.000000
H 0.478564 0.457359 0.705399 0.000000
H 0.480662 0.496577 0.718063 0.000000
H 0.352227 0.542803 0.364993 0.000000
H 0.352584 0.502029 0.380143 0.000000
H 0.366464 0.430269 0.390613 0.000000
H 0.360427 0.388858 0.401534 0.000000
H 0.360500 0.358091 0.428758 0.000000
H 0.379173 0.404373 0.472414 0.000000
H 0.385852 0.445960 0.461502 0.000000
H 0.408924 0.519973 0.426513 0.000000
H 0.408704 0.560362 0.410941 0.000000
H 0.394277 0.589754 0.384570 0.000000
