data_C1_PM
_symmetry_space_group_name_H-M   'P 1'
_cell_length_a 41.604218
_cell_length_b 41.604218
_cell_length_c 41.604218
_cell_angle_alpha 90.000000
_cell_angle_beta 90.000000
_cell_angle_gamma 90.000000
_symmetry_Int_Tables_number 1

loop_
_symmetry_equiv_pos_as_xyz
 'x, y, z'

loop_
_atom_site_label
_atom_site_fract_x
_atom_site_fract_y
_atom_site_fract_z
_atom_site_charge
C 0.481894 0.432019 0.616965 0.000000
N 0.477325 0.414185 0.587004 0.000000
C 0.491312 0.467274 0.615687 0.000000
C 0.524113 0.475960 0.615156 0.000000
C 0.532832 0.508746 0.615702 0.000000
C 0.508890 0.532793 0.615348 0.000000
C 0.476111 0.523966 0.615764 0.000000
C 0.467263 0.491210 0.615340 0.000000
C 0.432000 0.481716 0.614921 0.000000
C 0.417484 0.477793 0.648722 0.000000
C 0.450296 0.549767 0.617094 0.000000
N 0.437264 0.562837 0.587125 0.000000
C 0.518354 0.568049 0.614929 0.000000
C 0.522154 0.582616 0.648718 0.000000
C 0.568115 0.518151 0.616972 0.000000
N 0.585892 0.523002 0.586993 0.000000
C 0.549881 0.450114 0.614492 0.000000
C 0.560546 0.439184 0.648193 0.000000
C 0.481817 0.432057 0.382905 0.000000
N 0.477173 0.414254 0.412888 0.000000
C 0.491232 0.467318 0.384126 0.000000
C 0.524021 0.476040 0.384459 0.000000
C 0.532687 0.508844 0.384074 0.000000
C 0.508742 0.532868 0.384650 0.000000
C 0.475984 0.524008 0.384226 0.000000
C 0.467163 0.491242 0.384661 0.000000
C 0.431919 0.481707 0.385454 0.000000
C 0.416993 0.477604 0.351849 0.000000
C 0.450158 0.549798 0.383111 0.000000
N 0.437320 0.562809 0.413167 0.000000
C 0.518188 0.568126 0.385417 0.000000
C 0.522215 0.583020 0.351800 0.000000
C 0.567905 0.518356 0.382921 0.000000
N 0.585453 0.523241 0.412991 0.000000
C 0.549856 0.450244 0.384916 0.000000
C 0.560676 0.439561 0.351182 0.000000
C 0.463564 0.361894 0.499925 0.000000
C 0.467817 0.377972 0.529033 0.000000
C 0.476233 0.410715 0.529335 0.000000
C 0.480784 0.428173 0.559811 0.000000
C 0.480304 0.426776 0.499944 0.000000
C 0.476130 0.410750 0.470549 0.000000
C 0.480696 0.428208 0.440084 0.000000
C 0.467643 0.378018 0.470823 0.000000
C 0.398811 0.600719 0.500066 0.000000
C 0.410706 0.589065 0.470976 0.000000
C 0.434639 0.565182 0.470737 0.000000
C 0.447447 0.552464 0.440312 0.000000
C 0.446250 0.553391 0.500123 0.000000
C 0.434444 0.565050 0.529484 0.000000
C 0.447177 0.552330 0.559951 0.000000
C 0.410520 0.588926 0.529174 0.000000
C 0.637787 0.537124 0.499831 0.000000
C 0.621578 0.532942 0.470792 0.000000
C 0.588905 0.524254 0.470583 0.000000
C 0.571450 0.519577 0.440145 0.000000
C 0.573011 0.519931 0.500013 0.000000
C 0.589160 0.524082 0.529342 0.000000
C 0.571870 0.519320 0.559847 0.000000
C 0.621836 0.532746 0.528978 0.000000
H 0.499703 0.418279 0.630873 0.000000
H 0.459486 0.428959 0.630674 0.000000
H 0.429026 0.459196 0.601433 0.000000
H 0.418111 0.499699 0.601445 0.000000
H 0.392031 0.470862 0.647329 0.000000
H 0.430231 0.459262 0.662579 0.000000
H 0.419096 0.500225 0.662575 0.000000
H 0.458844 0.570613 0.630936 0.000000
H 0.429423 0.541164 0.630872 0.000000
H 0.540901 0.571051 0.601500 0.000000
H 0.500369 0.581891 0.601406 0.000000
H 0.540755 0.570012 0.662613 0.000000
H 0.528900 0.608116 0.647310 0.000000
H 0.499721 0.580867 0.662559 0.000000
H 0.581885 0.500241 0.630722 0.000000
H 0.571158 0.540456 0.630855 0.000000
H 0.570882 0.458849 0.601057 0.000000
H 0.541163 0.429234 0.600858 0.000000
H 0.570329 0.459346 0.662185 0.000000
H 0.540281 0.429376 0.662011 0.000000
H 0.579174 0.420522 0.646650 0.000000
H 0.459414 0.429005 0.369184 0.000000
H 0.499629 0.418280 0.369037 0.000000
H 0.429114 0.459255 0.399087 0.000000
H 0.418160 0.499750 0.398984 0.000000
H 0.391561 0.470685 0.353575 0.000000
H 0.418429 0.499986 0.337886 0.000000
H 0.429582 0.459034 0.337903 0.000000
H 0.458631 0.570662 0.369241 0.000000
H 0.429201 0.541225 0.369445 0.000000
H 0.540658 0.570999 0.399005 0.000000
H 0.500135 0.581859 0.398954 0.000000
H 0.529046 0.608482 0.353505 0.000000
H 0.499844 0.581506 0.337831 0.000000
H 0.540839 0.570509 0.337854 0.000000
H 0.581832 0.500502 0.369261 0.000000
H 0.570955 0.540681 0.369074 0.000000
H 0.570805 0.458918 0.398476 0.000000
H 0.541178 0.429237 0.398378 0.000000
H 0.570480 0.459808 0.337335 0.000000
H 0.540491 0.429759 0.337241 0.000000
H 0.579337 0.420929 0.352722 0.000000
H 0.456978 0.336504 0.499933 0.000000
H 0.464725 0.365710 0.551980 0.000000
H 0.487325 0.453879 0.557712 0.000000
H 0.486868 0.452243 0.499946 0.000000
H 0.487332 0.453890 0.442198 0.000000
H 0.464398 0.365803 0.447873 0.000000
H 0.380231 0.619231 0.500054 0.000000
H 0.401843 0.598025 0.448009 0.000000
H 0.466093 0.533591 0.442375 0.000000
H 0.464848 0.534795 0.500146 0.000000
H 0.465715 0.533354 0.557898 0.000000
H 0.401518 0.597810 0.552119 0.000000
H 0.663137 0.543851 0.499735 0.000000
H 0.633701 0.536224 0.447799 0.000000
H 0.545831 0.512686 0.442227 0.000000
H 0.547598 0.513158 0.500117 0.000000
H 0.546243 0.512452 0.557844 0.000000
H 0.634132 0.535883 0.551899 0.000000
