data_C20_PM
_symmetry_space_group_name_H-M   'P 1'
_cell_length_a 44.456675
_cell_length_b 44.456675
_cell_length_c 44.456675
_cell_angle_alpha 90.000000
_cell_angle_beta 90.000000
_cell_angle_gamma 90.000000
_symmetry_Int_Tables_number 1

loop_
_symmetry_equiv_pos_as_xyz
 'x, y, z'

loop_
_atom_site_label
_atom_site_fract_x
_atom_site_fract_y
_atom_site_fract_z
_atom_site_charge
C 0.564439 0.495978 0.366171 0.000000
N 0.567320 0.489382 0.398174 0.000000
C 0.530596 0.499246 0.361202 0.000000
C 0.516949 0.527831 0.362627 0.000000
C 0.485228 0.529988 0.362666 0.000000
C 0.467251 0.503839 0.362104 0.000000
C 0.481222 0.475336 0.360413 0.000000
C 0.512876 0.472925 0.360366 0.000000
C 0.527770 0.442201 0.360330 0.000000
C 0.534674 0.430870 0.328376 0.000000
C 0.463043 0.446667 0.363901 0.000000
N 0.461675 0.434926 0.395022 0.000000
C 0.433245 0.506172 0.364090 0.000000
C 0.418219 0.509768 0.333176 0.000000
C 0.470958 0.560592 0.368924 0.000000
N 0.474938 0.565207 0.401137 0.000000
C 0.536010 0.556039 0.364670 0.000000
C 0.544912 0.568219 0.333563 0.000000
C 0.566148 0.499283 0.634069 0.000000
N 0.575656 0.503478 0.602432 0.000000
C 0.532386 0.498624 0.638823 0.000000
C 0.516360 0.471219 0.637593 0.000000
C 0.484590 0.471689 0.637879 0.000000
C 0.468885 0.499219 0.638925 0.000000
C 0.485118 0.526503 0.640253 0.000000
C 0.516820 0.526352 0.639750 0.000000
C 0.534166 0.555785 0.639099 0.000000
C 0.541817 0.567537 0.670718 0.000000
C 0.467908 0.555725 0.636655 0.000000
N 0.460011 0.563184 0.605200 0.000000
C 0.434774 0.499693 0.637578 0.000000
C 0.420205 0.498177 0.668929 0.000000
C 0.466747 0.443044 0.631545 0.000000
N 0.460181 0.444203 0.599437 0.000000
C 0.533104 0.441543 0.635353 0.000000
C 0.538660 0.426971 0.666200 0.000000
C 0.595132 0.518256 0.470568 0.000000
C 0.578931 0.504008 0.447995 0.000000
C 0.581471 0.507479 0.415684 0.000000
S 0.550315 0.480704 0.461829 0.000000
C 0.559842 0.490045 0.498400 0.000000
C 0.548194 0.482871 0.527042 0.000000
C 0.564473 0.496707 0.549846 0.000000
C 0.557985 0.493923 0.581587 0.000000
S 0.594068 0.518906 0.536196 0.000000
C 0.584534 0.509950 0.499398 0.000000
C 0.462387 0.466432 0.471539 0.000000
C 0.464017 0.445851 0.448117 0.000000
C 0.464385 0.453980 0.416624 0.000000
S 0.466921 0.408605 0.460680 0.000000
C 0.466230 0.420491 0.497888 0.000000
C 0.468391 0.406359 0.526357 0.000000
C 0.466024 0.427133 0.549553 0.000000
C 0.468056 0.422727 0.581790 0.000000
S 0.461428 0.464180 0.536723 0.000000
C 0.463110 0.452005 0.499778 0.000000
C 0.436626 0.575237 0.473809 0.000000
C 0.456493 0.567804 0.450890 0.000000
C 0.452236 0.569025 0.418590 0.000000
S 0.490579 0.553007 0.464197 0.000000
C 0.478233 0.556552 0.500966 0.000000
C 0.490401 0.549376 0.529383 0.000000
C 0.470928 0.557342 0.552476 0.000000
C 0.476570 0.552327 0.584096 0.000000
S 0.437377 0.573351 0.539407 0.000000
C 0.449194 0.569249 0.502436 0.000000
H 0.573289 0.476887 0.353197 0.000000
H 0.577108 0.516086 0.359053 0.000000
H 0.548434 0.443013 0.373775 0.000000
H 0.513422 0.425855 0.372001 0.000000
H 0.545568 0.408682 0.328991 0.000000
H 0.549677 0.446434 0.316344 0.000000
H 0.514015 0.428890 0.314913 0.000000
H 0.439748 0.449431 0.355981 0.000000
H 0.472304 0.428559 0.349899 0.000000
H 0.426865 0.525099 0.378626 0.000000
H 0.424043 0.486235 0.375411 0.000000
H 0.423484 0.490542 0.318543 0.000000
H 0.393631 0.511362 0.335264 0.000000
H 0.426330 0.530104 0.321674 0.000000
H 0.447274 0.561742 0.361626 0.000000
H 0.483055 0.578392 0.356718 0.000000
H 0.524120 0.573316 0.377618 0.000000
H 0.556408 0.551489 0.377818 0.000000
H 0.524894 0.573678 0.320089 0.000000
H 0.558615 0.588706 0.335563 0.000000
H 0.557877 0.551474 0.320783 0.000000
H 0.576603 0.517476 0.647067 0.000000
H 0.577000 0.478624 0.642365 0.000000
H 0.554894 0.553090 0.625941 0.000000
H 0.521195 0.572946 0.626936 0.000000
H 0.554397 0.588785 0.669518 0.000000
H 0.555518 0.551189 0.683233 0.000000
H 0.521284 0.571461 0.683932 0.000000
H 0.446734 0.555260 0.649352 0.000000
H 0.480391 0.574986 0.645928 0.000000
H 0.426749 0.481089 0.623514 0.000000
H 0.427128 0.520037 0.625867 0.000000
H 0.426769 0.477552 0.680917 0.000000
H 0.427228 0.517262 0.683011 0.000000
H 0.395541 0.498543 0.667266 0.000000
H 0.445422 0.443296 0.644076 0.000000
H 0.478840 0.422491 0.638403 0.000000
H 0.520615 0.425840 0.620925 0.000000
H 0.554712 0.444773 0.623832 0.000000
H 0.517341 0.422600 0.677946 0.000000
H 0.550773 0.405535 0.663931 0.000000
H 0.552036 0.441892 0.680688 0.000000
H 0.613512 0.533800 0.466087 0.000000
H 0.594886 0.526820 0.407514 0.000000
H 0.528743 0.468622 0.531364 0.000000
H 0.536123 0.483060 0.586274 0.000000
H 0.461124 0.490621 0.467899 0.000000
H 0.467797 0.478301 0.412869 0.000000
H 0.471447 0.382359 0.530128 0.000000
H 0.477418 0.401052 0.589762 0.000000
H 0.414321 0.584481 0.469725 0.000000
H 0.428920 0.572158 0.410365 0.000000
H 0.512133 0.538781 0.533325 0.000000
H 0.496266 0.537825 0.588426 0.000000
