data_C21_PM
_symmetry_space_group_name_H-M   'P 1'
_cell_length_a 44.382840
_cell_length_b 44.382840
_cell_length_c 44.382840
_cell_angle_alpha 90.000000
_cell_angle_beta 90.000000
_cell_angle_gamma 90.000000
_symmetry_Int_Tables_number 1

loop_
_symmetry_equiv_pos_as_xyz
 'x, y, z'

loop_
_atom_site_label
_atom_site_fract_x
_atom_site_fract_y
_atom_site_fract_z
_atom_site_charge
C 0.501845 0.565559 0.364239 0.000000
N 0.503901 0.575366 0.396088 0.000000
C 0.500621 0.531710 0.359587 0.000000
C 0.472751 0.516455 0.359937 0.000000
C 0.472149 0.484545 0.359693 0.000000
C 0.499294 0.468038 0.359717 0.000000
C 0.527206 0.483495 0.359471 0.000000
C 0.527958 0.515255 0.359616 0.000000
C 0.557888 0.531802 0.360409 0.000000
C 0.569920 0.538842 0.328697 0.000000
C 0.555911 0.465577 0.364301 0.000000
N 0.563191 0.459145 0.396217 0.000000
C 0.498796 0.433835 0.360648 0.000000
C 0.499752 0.419722 0.329021 0.000000
C 0.442237 0.468661 0.364481 0.000000
N 0.432932 0.465481 0.396374 0.000000
C 0.443458 0.534111 0.361177 0.000000
C 0.430910 0.541078 0.329658 0.000000
C 0.556022 0.465581 0.635569 0.000000
N 0.562984 0.458803 0.603631 0.000000
C 0.527390 0.483606 0.640456 0.000000
C 0.499458 0.468174 0.640366 0.000000
C 0.472333 0.484694 0.640489 0.000000
C 0.472962 0.516601 0.640149 0.000000
C 0.500841 0.531827 0.640346 0.000000
C 0.528176 0.515362 0.640238 0.000000
C 0.558087 0.531952 0.639178 0.000000
C 0.570188 0.539553 0.670741 0.000000
C 0.502048 0.565655 0.635550 0.000000
N 0.503884 0.575297 0.603658 0.000000
C 0.443653 0.534236 0.638939 0.000000
C 0.430990 0.540927 0.670471 0.000000
C 0.442407 0.468809 0.635873 0.000000
N 0.433024 0.465443 0.604030 0.000000
C 0.498933 0.433977 0.639434 0.000000
C 0.499903 0.419867 0.671058 0.000000
C 0.482221 0.544558 0.529642 0.000000
C 0.494312 0.563270 0.551401 0.000000
C 0.493669 0.557288 0.583402 0.000000
S 0.512696 0.594809 0.535794 0.000000
C 0.504338 0.582216 0.499966 0.000000
S 0.512773 0.594890 0.464178 0.000000
C 0.494415 0.563397 0.448447 0.000000
C 0.493750 0.557418 0.416436 0.000000
C 0.482287 0.544654 0.470166 0.000000
C 0.487811 0.555058 0.499926 0.000000
C 0.470377 0.462718 0.470431 0.000000
C 0.448117 0.463701 0.448679 0.000000
C 0.453616 0.465953 0.416658 0.000000
S 0.411627 0.463711 0.464342 0.000000
C 0.426751 0.462845 0.500165 0.000000
S 0.411600 0.463538 0.535983 0.000000
C 0.448075 0.463420 0.551672 0.000000
C 0.453639 0.465775 0.583680 0.000000
C 0.470345 0.462516 0.529923 0.000000
C 0.458536 0.462238 0.500170 0.000000
C 0.547372 0.493185 0.529692 0.000000
C 0.557297 0.473195 0.551404 0.000000
C 0.552703 0.476854 0.583439 0.000000
S 0.574923 0.441266 0.535718 0.000000
C 0.568332 0.454956 0.499922 0.000000
S 0.575003 0.441393 0.464094 0.000000
C 0.557367 0.473350 0.448474 0.000000
C 0.552707 0.477036 0.416440 0.000000
C 0.547403 0.493262 0.470240 0.000000
C 0.553461 0.483053 0.499958 0.000000
H 0.521192 0.575537 0.352531 0.000000
H 0.482060 0.576836 0.354409 0.000000
H 0.574689 0.518470 0.372750 0.000000
H 0.555679 0.552745 0.373395 0.000000
H 0.573262 0.518052 0.315654 0.000000
H 0.553984 0.552939 0.316012 0.000000
H 0.591567 0.550815 0.329831 0.000000
H 0.554940 0.443737 0.352767 0.000000
H 0.575592 0.477006 0.354445 0.000000
H 0.478602 0.425893 0.372530 0.000000
H 0.517773 0.425468 0.374147 0.000000
H 0.520121 0.426632 0.316736 0.000000
H 0.480287 0.426944 0.315510 0.000000
H 0.499539 0.394992 0.330273 0.000000
H 0.423851 0.480478 0.352931 0.000000
H 0.442294 0.445927 0.354560 0.000000
H 0.446785 0.555300 0.373513 0.000000
H 0.426615 0.521688 0.374373 0.000000
H 0.426526 0.520258 0.316973 0.000000
H 0.409722 0.553815 0.331094 0.000000
H 0.447058 0.554412 0.316429 0.000000
H 0.555114 0.443876 0.647358 0.000000
H 0.575811 0.477097 0.645098 0.000000
H 0.574902 0.518467 0.627023 0.000000
H 0.555799 0.552676 0.625852 0.000000
H 0.591753 0.551643 0.669353 0.000000
H 0.554203 0.553721 0.683282 0.000000
H 0.573705 0.518969 0.684064 0.000000
H 0.482347 0.576986 0.645489 0.000000
H 0.521488 0.575672 0.647068 0.000000
H 0.446972 0.555520 0.626773 0.000000
H 0.426878 0.521865 0.625599 0.000000
H 0.426748 0.520010 0.683043 0.000000
H 0.447019 0.554312 0.683795 0.000000
H 0.409710 0.553513 0.669075 0.000000
H 0.442478 0.446138 0.645940 0.000000
H 0.424055 0.480704 0.647392 0.000000
H 0.478726 0.426051 0.627561 0.000000
H 0.517895 0.425604 0.625917 0.000000
H 0.499708 0.395138 0.669800 0.000000
H 0.520263 0.426793 0.683347 0.000000
H 0.480426 0.427068 0.684563 0.000000
H 0.470257 0.523834 0.535097 0.000000
H 0.483904 0.535028 0.588807 0.000000
H 0.483984 0.535141 0.411101 0.000000
H 0.470308 0.523955 0.464647 0.000000
H 0.494303 0.462752 0.464958 0.000000
H 0.477761 0.468761 0.411246 0.000000
H 0.477802 0.468587 0.589002 0.000000
H 0.494265 0.462538 0.535420 0.000000
H 0.535724 0.514074 0.535199 0.000000
H 0.538756 0.496735 0.588931 0.000000
H 0.538468 0.496728 0.411004 0.000000
H 0.535749 0.514162 0.464784 0.000000
