data_C23_PM
_symmetry_space_group_name_H-M   'P 1'
_cell_length_a 51.291175
_cell_length_b 51.291175
_cell_length_c 51.291175
_cell_angle_alpha 90.000000
_cell_angle_beta 90.000000
_cell_angle_gamma 90.000000
_symmetry_Int_Tables_number 1

loop_
_symmetry_equiv_pos_as_xyz
 'x, y, z'

loop_
_atom_site_label
_atom_site_fract_x
_atom_site_fract_y
_atom_site_fract_z
_atom_site_charge
C 0.397501 0.484454 0.338326 0.000000
N 0.398414 0.499639 0.362394 0.000000
C 0.423612 0.471210 0.333326 0.000000
C 0.427432 0.444936 0.340561 0.000000
C 0.451617 0.432889 0.335437 0.000000
C 0.472383 0.447331 0.324586 0.000000
C 0.468430 0.473654 0.317738 0.000000
C 0.444137 0.485746 0.322248 0.000000
C 0.440199 0.514256 0.315365 0.000000
C 0.430489 0.518307 0.287279 0.000000
C 0.490700 0.489675 0.306276 0.000000
N 0.502940 0.505350 0.326642 0.000000
C 0.498716 0.434442 0.320549 0.000000
C 0.501918 0.422254 0.293332 0.000000
C 0.455784 0.404275 0.342255 0.000000
N 0.469162 0.401468 0.367235 0.000000
C 0.405815 0.429883 0.354085 0.000000
C 0.387395 0.415502 0.335307 0.000000
C 0.445356 0.681380 0.512179 0.000000
N 0.434912 0.654895 0.511889 0.000000
C 0.474583 0.681339 0.517555 0.000000
C 0.483474 0.678987 0.543490 0.000000
C 0.510442 0.679716 0.548677 0.000000
C 0.528520 0.682042 0.528066 0.000000
C 0.519455 0.683984 0.502180 0.000000
C 0.492490 0.683033 0.496759 0.000000
C 0.482808 0.683774 0.468801 0.000000
C 0.477689 0.711486 0.458605 0.000000
C 0.539090 0.686407 0.479988 0.000000
N 0.549461 0.660876 0.472856 0.000000
C 0.557540 0.682542 0.533737 0.000000
C 0.567943 0.710297 0.538430 0.000000
C 0.520358 0.676993 0.576579 0.000000
N 0.528230 0.650091 0.581461 0.000000
C 0.463906 0.675711 0.565439 0.000000
C 0.455430 0.701731 0.577699 0.000000
C 0.667276 0.456058 0.582212 0.000000
N 0.640968 0.464436 0.589044 0.000000
C 0.667704 0.444433 0.554868 0.000000
C 0.675381 0.459835 0.533397 0.000000
C 0.676049 0.448624 0.508298 0.000000
C 0.667765 0.422668 0.504366 0.000000
C 0.659789 0.407590 0.525924 0.000000
C 0.659491 0.418465 0.551198 0.000000
C 0.650326 0.402362 0.574271 0.000000
C 0.672568 0.387185 0.587521 0.000000
C 0.650436 0.379648 0.522013 0.000000
N 0.621993 0.378981 0.521191 0.000000
C 0.667641 0.411277 0.477038 0.000000
C 0.693145 0.397134 0.470035 0.000000
C 0.685306 0.464670 0.485063 0.000000
N 0.663381 0.475653 0.470586 0.000000
C 0.682702 0.488252 0.537354 0.000000
C 0.711712 0.492480 0.543602 0.000000
C 0.413031 0.449156 0.661103 0.000000
N 0.432185 0.467547 0.650887 0.000000
C 0.397514 0.436520 0.639146 0.000000
C 0.376505 0.450236 0.627826 0.000000
C 0.361677 0.438323 0.607990 0.000000
C 0.368152 0.413146 0.598981 0.000000
C 0.389380 0.399765 0.610192 0.000000
C 0.404506 0.411583 0.629897 0.000000
C 0.428192 0.397660 0.640918 0.000000
C 0.422026 0.380050 0.664380 0.000000
C 0.396505 0.372774 0.600017 0.000000
N 0.411453 0.374984 0.575906 0.000000
C 0.352355 0.400535 0.577379 0.000000
C 0.329250 0.384439 0.587729 0.000000
C 0.339048 0.452902 0.595400 0.000000
N 0.347380 0.464752 0.570863 0.000000
C 0.370159 0.477628 0.637091 0.000000
C 0.349997 0.478259 0.659272 0.000000
C 0.528300 0.532559 0.369220 0.000000
C 0.541688 0.544976 0.389159 0.000000
C 0.568983 0.542415 0.391365 0.000000
C 0.582412 0.527222 0.372930 0.000000
C 0.568765 0.514592 0.353144 0.000000
C 0.541563 0.516989 0.350869 0.000000
C 0.527551 0.502985 0.330259 0.000000
N 0.582628 0.554534 0.412174 0.000000
C 0.574819 0.579475 0.421226 0.000000
C 0.574417 0.585011 0.448167 0.000000
C 0.566316 0.609214 0.457088 0.000000
C 0.558099 0.628721 0.439573 0.000000
C 0.548796 0.654132 0.448797 0.000000
C 0.558514 0.623047 0.412762 0.000000
C 0.566900 0.598915 0.403591 0.000000
C 0.602828 0.540823 0.425222 0.000000
C 0.600451 0.513912 0.430371 0.000000
C 0.620037 0.500688 0.443535 0.000000
C 0.642599 0.513794 0.452156 0.000000
C 0.663420 0.500292 0.466322 0.000000
C 0.644783 0.540634 0.446987 0.000000
C 0.625351 0.554010 0.433573 0.000000
C 0.400288 0.525985 0.412415 0.000000
C 0.399694 0.538220 0.436517 0.000000
C 0.378531 0.534322 0.453646 0.000000
C 0.358005 0.517913 0.445840 0.000000
C 0.358976 0.505383 0.421785 0.000000
C 0.379995 0.509187 0.404621 0.000000
C 0.380664 0.495584 0.379515 0.000000
N 0.378236 0.546218 0.478606 0.000000
C 0.369193 0.531899 0.500514 0.000000
C 0.374939 0.505123 0.503004 0.000000
C 0.366530 0.491233 0.524615 0.000000
C 0.352336 0.503567 0.544646 0.000000
C 0.343964 0.489342 0.567984 0.000000
C 0.346684 0.530264 0.542035 0.000000
C 0.354766 0.544287 0.520238 0.000000
C 0.388810 0.571530 0.482148 0.000000
C 0.384352 0.591200 0.463596 0.000000
C 0.395261 0.615815 0.466980 0.000000
C 0.410561 0.621700 0.488946 0.000000
C 0.421807 0.647786 0.491823 0.000000
C 0.414784 0.601933 0.507556 0.000000
C 0.404222 0.577267 0.504208 0.000000
C 0.492508 0.395378 0.418753 0.000000
C 0.502690 0.390995 0.443420 0.000000
C 0.490416 0.373430 0.460673 0.000000
C 0.467628 0.360553 0.452524 0.000000
C 0.457393 0.365310 0.427845 0.000000
C 0.469624 0.382632 0.410469 0.000000
C 0.458393 0.387048 0.384588 0.000000
N 0.500672 0.369046 0.485994 0.000000
C 0.483616 0.367237 0.507699 0.000000
C 0.461033 0.382884 0.509062 0.000000
C 0.444633 0.381450 0.530504 0.000000
C 0.450300 0.364647 0.551485 0.000000
C 0.433447 0.363219 0.574503 0.000000
C 0.472887 0.349211 0.550046 0.000000
C 0.489239 0.350190 0.528417 0.000000
C 0.528062 0.368710 0.489936 0.000000
C 0.544605 0.356305 0.471949 0.000000
C 0.571483 0.356646 0.475737 0.000000
C 0.582610 0.368927 0.497560 0.000000
C 0.610970 0.369334 0.500947 0.000000
C 0.565864 0.381162 0.515568 0.000000
C 0.539098 0.381197 0.511805 0.000000
C 0.512601 0.598402 0.628304 0.000000
C 0.517721 0.572344 0.633944 0.000000
C 0.533475 0.557509 0.617143 0.000000
C 0.544162 0.569453 0.594791 0.000000
C 0.539253 0.595495 0.589537 0.000000
C 0.523304 0.610464 0.606160 0.000000
C 0.517519 0.637835 0.600420 0.000000
N 0.538285 0.530782 0.622394 0.000000
C 0.517751 0.514585 0.631395 0.000000
C 0.522622 0.494950 0.649880 0.000000
C 0.502473 0.478778 0.658193 0.000000
C 0.476943 0.481900 0.648718 0.000000
C 0.456023 0.464739 0.657844 0.000000
C 0.472218 0.501724 0.630296 0.000000
C 0.492227 0.517717 0.621669 0.000000
C 0.563015 0.519832 0.616613 0.000000
C 0.585964 0.533984 0.621570 0.000000
C 0.610112 0.523478 0.615020 0.000000
C 0.612187 0.498512 0.603911 0.000000
C 0.637805 0.487862 0.597147 0.000000
C 0.589108 0.484341 0.599293 0.000000
C 0.564944 0.494804 0.605371 0.000000
H 0.381367 0.470185 0.338321 0.000000
H 0.393384 0.498103 0.322286 0.000000
H 0.426430 0.523050 0.329191 0.000000
H 0.458582 0.524812 0.318326 0.000000
H 0.444261 0.510254 0.272951 0.000000
H 0.427915 0.539145 0.282960 0.000000
H 0.411697 0.508518 0.283972 0.000000
H 0.482856 0.503189 0.291574 0.000000
H 0.504876 0.477137 0.296008 0.000000
H 0.514290 0.448787 0.323770 0.000000
H 0.501704 0.419584 0.335657 0.000000
H 0.521119 0.412949 0.291249 0.000000
H 0.486942 0.407364 0.289637 0.000000
H 0.499958 0.437004 0.277900 0.000000
H 0.468274 0.395277 0.327298 0.000000
H 0.437183 0.393430 0.341781 0.000000
H 0.394454 0.443229 0.366386 0.000000
H 0.414383 0.415853 0.367804 0.000000
H 0.398083 0.401363 0.323257 0.000000
H 0.372141 0.404912 0.346025 0.000000
H 0.377805 0.429167 0.321866 0.000000
H 0.435369 0.692000 0.527926 0.000000
H 0.440838 0.692046 0.494022 0.000000
H 0.464939 0.672104 0.467086 0.000000
H 0.496949 0.673963 0.456060 0.000000
H 0.463008 0.721556 0.470537 0.000000
H 0.495495 0.723397 0.459265 0.000000
H 0.470679 0.711131 0.438344 0.000000
H 0.555616 0.698420 0.486547 0.000000
H 0.530548 0.696718 0.463112 0.000000
H 0.568120 0.673403 0.517528 0.000000
H 0.561653 0.670216 0.550744 0.000000
H 0.588987 0.710061 0.542506 0.000000
H 0.564659 0.722891 0.521387 0.000000
H 0.558099 0.719654 0.555022 0.000000
H 0.505728 0.683934 0.590770 0.000000
H 0.537670 0.689388 0.579207 0.000000
H 0.446812 0.665104 0.558142 0.000000
H 0.472165 0.663062 0.580615 0.000000
H 0.441096 0.698608 0.593332 0.000000
H 0.472156 0.712254 0.586007 0.000000
H 0.446554 0.714703 0.563120 0.000000
H 0.681660 0.471962 0.584195 0.000000
H 0.673086 0.440979 0.596329 0.000000
H 0.635070 0.388812 0.567810 0.000000
H 0.640759 0.415189 0.588486 0.000000
H 0.682065 0.373655 0.573862 0.000000
H 0.687838 0.400362 0.594800 0.000000
H 0.665260 0.375756 0.604117 0.000000
H 0.659314 0.370813 0.504501 0.000000
H 0.656719 0.367670 0.538666 0.000000
H 0.663735 0.426850 0.462889 0.000000
H 0.651199 0.397715 0.474964 0.000000
H 0.692437 0.389329 0.450081 0.000000
H 0.709989 0.410332 0.471364 0.000000
H 0.696949 0.380839 0.483433 0.000000
H 0.699299 0.479828 0.491267 0.000000
H 0.696049 0.451882 0.471584 0.000000
H 0.670723 0.496584 0.553030 0.000000
H 0.677439 0.499526 0.519934 0.000000
H 0.716085 0.513277 0.546432 0.000000
H 0.717437 0.482001 0.561397 0.000000
H 0.724181 0.485163 0.527776 0.000000
H 0.399615 0.460256 0.673651 0.000000
H 0.422049 0.434249 0.673765 0.000000
H 0.443030 0.412048 0.646497 0.000000
H 0.437458 0.386028 0.625510 0.000000
H 0.407814 0.364880 0.659157 0.000000
H 0.439711 0.370373 0.671679 0.000000
H 0.413482 0.391318 0.680488 0.000000
H 0.378521 0.361991 0.595467 0.000000
H 0.406811 0.361202 0.614972 0.000000
H 0.365167 0.388149 0.565526 0.000000
H 0.345303 0.415672 0.563992 0.000000
H 0.335833 0.368683 0.600699 0.000000
H 0.315719 0.396569 0.599116 0.000000
H 0.318214 0.375568 0.571637 0.000000
H 0.330577 0.467347 0.608932 0.000000
H 0.323349 0.439008 0.590836 0.000000
H 0.362988 0.489301 0.620630 0.000000
H 0.388201 0.487331 0.643286 0.000000
H 0.346113 0.498363 0.665622 0.000000
H 0.331409 0.469498 0.653165 0.000000
H 0.356786 0.467160 0.676312 0.000000
H 0.507151 0.534115 0.367734 0.000000
H 0.531133 0.556545 0.403524 0.000000
H 0.603514 0.525214 0.374409 0.000000
H 0.579442 0.502710 0.339054 0.000000
H 0.539626 0.489853 0.317996 0.000000
H 0.580257 0.569953 0.461975 0.000000
H 0.565608 0.613407 0.477918 0.000000
H 0.540905 0.667308 0.433532 0.000000
H 0.552320 0.637909 0.398817 0.000000
H 0.567201 0.594871 0.382733 0.000000
H 0.582932 0.503632 0.424122 0.000000
H 0.618114 0.479959 0.447847 0.000000
H 0.679603 0.512909 0.473239 0.000000
H 0.662171 0.551137 0.453391 0.000000
H 0.627362 0.574789 0.429608 0.000000
H 0.416790 0.528671 0.399285 0.000000
H 0.415788 0.550721 0.442540 0.000000
H 0.341520 0.514839 0.458888 0.000000
H 0.342978 0.492539 0.416062 0.000000
H 0.364742 0.481292 0.376191 0.000000
H 0.386322 0.495483 0.487869 0.000000
H 0.371263 0.470623 0.526802 0.000000
H 0.334513 0.501346 0.583322 0.000000
H 0.335597 0.540155 0.557296 0.000000
H 0.350173 0.564955 0.518428 0.000000
H 0.372401 0.586980 0.446541 0.000000
H 0.391647 0.630925 0.452411 0.000000
H 0.418253 0.661303 0.475287 0.000000
H 0.426974 0.606315 0.524411 0.000000
H 0.407942 0.562010 0.518525 0.000000
H 0.501796 0.409146 0.405482 0.000000
H 0.520198 0.401251 0.449734 0.000000
H 0.458028 0.346930 0.465704 0.000000
H 0.439680 0.355166 0.421763 0.000000
H 0.439676 0.376857 0.380758 0.000000
H 0.456727 0.396350 0.493200 0.000000
H 0.427326 0.393728 0.531779 0.000000
H 0.440950 0.351187 0.590867 0.000000
H 0.477557 0.335980 0.566072 0.000000
H 0.506604 0.337981 0.527513 0.000000
H 0.536244 0.346600 0.454995 0.000000
H 0.584138 0.347009 0.461573 0.000000
H 0.622476 0.360926 0.484654 0.000000
H 0.574504 0.391097 0.532257 0.000000
H 0.526374 0.391119 0.525631 0.000000
H 0.500253 0.609717 0.641462 0.000000
H 0.509447 0.563253 0.651276 0.000000
H 0.556145 0.557931 0.581556 0.000000
H 0.547164 0.604762 0.572120 0.000000
H 0.503103 0.647359 0.613457 0.000000
H 0.542293 0.492418 0.657507 0.000000
H 0.506525 0.463573 0.672549 0.000000
H 0.462095 0.448977 0.671390 0.000000
H 0.452516 0.503891 0.622614 0.000000
H 0.488412 0.532743 0.607134 0.000000
H 0.584665 0.553301 0.630321 0.000000
H 0.627784 0.534732 0.618856 0.000000
H 0.654514 0.501442 0.599434 0.000000
H 0.590680 0.465143 0.590300 0.000000
H 0.547205 0.483856 0.601242 0.000000
