data_C24_PM
_symmetry_space_group_name_H-M   'P 1'
_cell_length_a 54.889454
_cell_length_b 54.889454
_cell_length_c 54.889454
_cell_angle_alpha 90.000000
_cell_angle_beta 90.000000
_cell_angle_gamma 90.000000
_symmetry_Int_Tables_number 1

loop_
_symmetry_equiv_pos_as_xyz
 'x, y, z'

loop_
_atom_site_label
_atom_site_fract_x
_atom_site_fract_y
_atom_site_fract_z
_atom_site_charge
C 0.658247 0.576778 0.397853 0.000000
N 0.632324 0.570812 0.396680 0.000000
C 0.667996 0.574612 0.423763 0.000000
C 0.664519 0.594045 0.440269 0.000000
C 0.674237 0.592384 0.463979 0.000000
C 0.686754 0.571191 0.471478 0.000000
C 0.689842 0.551750 0.454986 0.000000
C 0.680026 0.553186 0.431218 0.000000
C 0.682391 0.531610 0.414040 0.000000
C 0.705599 0.532267 0.398330 0.000000
C 0.702743 0.528605 0.462932 0.000000
N 0.687901 0.508899 0.473411 0.000000
C 0.696862 0.569393 0.497157 0.000000
C 0.723012 0.579291 0.499244 0.000000
C 0.670500 0.613148 0.482006 0.000000
N 0.649231 0.608324 0.497301 0.000000
C 0.650275 0.616395 0.432346 0.000000
C 0.666421 0.636628 0.421573 0.000000
C 0.467584 0.343330 0.368266 0.000000
N 0.467559 0.369860 0.370743 0.000000
C 0.469409 0.331242 0.393191 0.000000
C 0.448072 0.327706 0.407122 0.000000
C 0.449729 0.316784 0.430311 0.000000
C 0.472665 0.310117 0.439937 0.000000
C 0.493806 0.313440 0.425768 0.000000
C 0.492350 0.324484 0.402565 0.000000
C 0.515471 0.329033 0.388109 0.000000
C 0.522280 0.307820 0.371094 0.000000
C 0.518576 0.305967 0.435866 0.000000
N 0.530799 0.326845 0.446976 0.000000
C 0.474331 0.299698 0.465514 0.000000
C 0.472456 0.271757 0.466409 0.000000
C 0.427052 0.313202 0.445737 0.000000
N 0.419940 0.332896 0.462449 0.000000
C 0.423508 0.335735 0.397222 0.000000
C 0.410645 0.315813 0.382263 0.000000
C 0.438948 0.469044 0.697785 0.000000
N 0.431022 0.473135 0.672689 0.000000
C 0.465893 0.475266 0.700328 0.000000
C 0.483627 0.456896 0.697542 0.000000
C 0.508573 0.462967 0.699338 0.000000
C 0.515788 0.487331 0.702983 0.000000
C 0.497873 0.505569 0.706100 0.000000
C 0.472937 0.499688 0.704341 0.000000
C 0.453733 0.519483 0.706493 0.000000
C 0.444625 0.523158 0.732746 0.000000
C 0.505839 0.531768 0.710021 0.000000
N 0.510583 0.546818 0.688364 0.000000
C 0.542569 0.494265 0.703389 0.000000
C 0.554052 0.493022 0.728921 0.000000
C 0.527767 0.443104 0.696418 0.000000
N 0.532228 0.438206 0.670641 0.000000
C 0.476219 0.430702 0.692729 0.000000
C 0.472058 0.416028 0.716247 0.000000
C 0.317896 0.594524 0.464940 0.000000
N 0.326251 0.572942 0.478450 0.000000
C 0.336899 0.609443 0.451465 0.000000
C 0.342289 0.604541 0.426849 0.000000
C 0.360335 0.618347 0.414775 0.000000
C 0.373474 0.636458 0.427384 0.000000
C 0.367880 0.641291 0.452043 0.000000
C 0.350024 0.627506 0.464290 0.000000
C 0.344837 0.631745 0.491139 0.000000
C 0.325035 0.651018 0.495762 0.000000
C 0.381695 0.661212 0.465599 0.000000
N 0.405101 0.652202 0.474536 0.000000
C 0.393625 0.650661 0.414850 0.000000
C 0.384576 0.673854 0.401983 0.000000
C 0.366211 0.612784 0.388221 0.000000
N 0.383455 0.592540 0.386755 0.000000
C 0.328838 0.584470 0.413397 0.000000
C 0.305549 0.593503 0.400678 0.000000
C 0.584836 0.441346 0.629572 0.000000
C 0.591673 0.438281 0.605320 0.000000
C 0.574563 0.430890 0.587748 0.000000
C 0.550360 0.426775 0.595325 0.000000
C 0.543471 0.430030 0.619452 0.000000
C 0.560676 0.437312 0.637015 0.000000
C 0.553975 0.440986 0.662628 0.000000
C 0.581786 0.427629 0.561968 0.000000
C 0.597166 0.444584 0.550573 0.000000
C 0.604270 0.441688 0.526199 0.000000
C 0.595770 0.421414 0.513163 0.000000
C 0.580057 0.404336 0.523956 0.000000
C 0.573300 0.407672 0.548412 0.000000
C 0.570145 0.383650 0.509720 0.000000
C 0.566771 0.360546 0.520292 0.000000
C 0.556503 0.341517 0.506973 0.000000
C 0.549286 0.344893 0.482642 0.000000
C 0.537699 0.324887 0.469200 0.000000
C 0.552887 0.367894 0.471905 0.000000
C 0.563132 0.386824 0.485187 0.000000
C 0.620200 0.459978 0.514394 0.000000
C 0.640855 0.452769 0.500967 0.000000
C 0.655969 0.469956 0.490135 0.000000
C 0.650611 0.494955 0.491896 0.000000
C 0.666226 0.513635 0.480730 0.000000
C 0.629761 0.502174 0.504879 0.000000
C 0.614952 0.484969 0.516258 0.000000
C 0.505423 0.419648 0.347254 0.000000
C 0.509105 0.444694 0.348914 0.000000
C 0.493969 0.459232 0.363601 0.000000
C 0.474808 0.447767 0.376320 0.000000
C 0.471143 0.422777 0.374756 0.000000
C 0.486539 0.408269 0.360263 0.000000
C 0.483792 0.381720 0.358878 0.000000
C 0.498363 0.485725 0.366046 0.000000
C 0.522246 0.494739 0.367729 0.000000
C 0.526856 0.519730 0.370622 0.000000
C 0.506986 0.535809 0.371582 0.000000
C 0.482894 0.527353 0.369861 0.000000
C 0.478865 0.502236 0.367149 0.000000
C 0.462187 0.544628 0.370768 0.000000
C 0.440504 0.538696 0.383257 0.000000
C 0.421221 0.555034 0.384571 0.000000
C 0.422892 0.578031 0.373343 0.000000
C 0.403377 0.596199 0.375162 0.000000
C 0.444317 0.583911 0.360644 0.000000
C 0.463651 0.567535 0.359390 0.000000
C 0.552127 0.528806 0.373314 0.000000
C 0.571281 0.518824 0.359530 0.000000
C 0.595070 0.527189 0.362398 0.000000
C 0.600537 0.545755 0.379153 0.000000
C 0.625845 0.553873 0.381981 0.000000
C 0.581429 0.555860 0.392943 0.000000
C 0.557717 0.547515 0.390032 0.000000
C 0.592673 0.640785 0.511889 0.000000
C 0.570423 0.638220 0.523805 0.000000
C 0.564607 0.616542 0.536161 0.000000
C 0.582219 0.597827 0.536725 0.000000
C 0.604410 0.600355 0.524834 0.000000
C 0.609901 0.621847 0.511966 0.000000
C 0.632614 0.624696 0.498161 0.000000
C 0.540321 0.612980 0.547348 0.000000
C 0.519363 0.621686 0.535505 0.000000
C 0.496011 0.617728 0.545125 0.000000
C 0.493841 0.604474 0.566897 0.000000
C 0.514442 0.595670 0.579200 0.000000
C 0.537600 0.600233 0.569371 0.000000
C 0.511612 0.581418 0.601948 0.000000
C 0.494838 0.562106 0.603167 0.000000
C 0.492354 0.548463 0.624434 0.000000
C 0.506033 0.554124 0.645316 0.000000
C 0.502487 0.539745 0.667625 0.000000
C 0.522719 0.573543 0.644179 0.000000
C 0.525631 0.586768 0.622774 0.000000
C 0.474031 0.627195 0.532624 0.000000
C 0.454775 0.637399 0.546100 0.000000
C 0.433958 0.646118 0.534486 0.000000
C 0.431598 0.644815 0.509035 0.000000
C 0.409163 0.653617 0.497476 0.000000
C 0.450858 0.634710 0.495450 0.000000
C 0.471681 0.626156 0.507049 0.000000
C 0.408507 0.371864 0.496655 0.000000
C 0.402187 0.391968 0.510704 0.000000
C 0.409493 0.415675 0.504018 0.000000
C 0.423692 0.418454 0.482889 0.000000
C 0.430480 0.398254 0.469085 0.000000
C 0.422815 0.374708 0.475578 0.000000
C 0.429715 0.353982 0.460087 0.000000
C 0.402439 0.437095 0.518848 0.000000
C 0.404771 0.436677 0.544304 0.000000
C 0.398388 0.456945 0.558584 0.000000
C 0.388821 0.477619 0.546912 0.000000
C 0.386323 0.478566 0.521477 0.000000
C 0.393490 0.458275 0.507642 0.000000
C 0.376230 0.500530 0.509431 0.000000
C 0.355099 0.512013 0.518452 0.000000
C 0.345514 0.532531 0.507106 0.000000
C 0.357007 0.542570 0.486506 0.000000
C 0.347516 0.564310 0.474064 0.000000
C 0.378266 0.531382 0.477662 0.000000
C 0.387559 0.510503 0.488736 0.000000
C 0.402811 0.456848 0.585209 0.000000
C 0.411367 0.477969 0.597129 0.000000
C 0.417036 0.477770 0.621780 0.000000
C 0.414248 0.456347 0.635579 0.000000
C 0.421542 0.455123 0.661250 0.000000
C 0.405160 0.435424 0.623974 0.000000
C 0.399544 0.435639 0.599220 0.000000
H 0.660261 0.595736 0.391651 0.000000
H 0.669127 0.565559 0.385181 0.000000
H 0.666318 0.530669 0.402168 0.000000
H 0.681971 0.514611 0.424596 0.000000
H 0.706629 0.516274 0.386317 0.000000
H 0.722062 0.532508 0.409727 0.000000
H 0.706191 0.548692 0.386884 0.000000
H 0.712754 0.520513 0.447606 0.000000
H 0.716983 0.532673 0.476467 0.000000
H 0.684790 0.579157 0.509774 0.000000
H 0.696477 0.550346 0.503307 0.000000
H 0.729828 0.577783 0.518014 0.000000
H 0.723960 0.598559 0.493845 0.000000
H 0.735530 0.569257 0.487252 0.000000
H 0.686433 0.614462 0.494090 0.000000
H 0.669153 0.630842 0.472524 0.000000
H 0.636352 0.610955 0.419058 0.000000
H 0.639992 0.623666 0.447893 0.000000
H 0.676609 0.630096 0.405611 0.000000
H 0.679958 0.643029 0.434877 0.000000
H 0.655413 0.652350 0.415847 0.000000
H 0.482223 0.336895 0.356048 0.000000
H 0.450314 0.338096 0.359559 0.000000
H 0.513521 0.345791 0.377367 0.000000
H 0.530511 0.332774 0.400750 0.000000
H 0.539218 0.311718 0.361140 0.000000
H 0.507836 0.304318 0.357664 0.000000
H 0.524926 0.290814 0.381346 0.000000
H 0.530184 0.299480 0.420868 0.000000
H 0.516784 0.290529 0.448649 0.000000
H 0.491473 0.305498 0.474035 0.000000
H 0.459985 0.307713 0.476936 0.000000
H 0.487111 0.263134 0.455825 0.000000
H 0.455130 0.265397 0.458637 0.000000
H 0.473616 0.265054 0.485248 0.000000
H 0.411049 0.309715 0.434148 0.000000
H 0.428675 0.296663 0.456902 0.000000
H 0.411635 0.341342 0.412333 0.000000
H 0.425887 0.352201 0.386107 0.000000
H 0.392990 0.322270 0.375358 0.000000
H 0.407375 0.299431 0.393311 0.000000
H 0.421728 0.310145 0.366569 0.000000
H 0.428129 0.481069 0.709603 0.000000
H 0.435247 0.450249 0.703951 0.000000
H 0.461020 0.536792 0.699560 0.000000
H 0.438361 0.515124 0.694449 0.000000
H 0.430626 0.537457 0.733588 0.000000
H 0.459617 0.528429 0.744942 0.000000
H 0.436721 0.506319 0.740178 0.000000
H 0.522500 0.532462 0.721089 0.000000
H 0.492294 0.541773 0.720931 0.000000
H 0.552799 0.482466 0.690899 0.000000
H 0.544799 0.512719 0.695975 0.000000
H 0.552994 0.474505 0.736484 0.000000
H 0.544545 0.505109 0.741748 0.000000
H 0.573325 0.498450 0.728437 0.000000
H 0.544644 0.447914 0.706263 0.000000
H 0.521085 0.426122 0.704709 0.000000
H 0.490159 0.421834 0.681461 0.000000
H 0.459611 0.430291 0.681607 0.000000
H 0.466967 0.397096 0.712139 0.000000
H 0.457512 0.424107 0.727399 0.000000
H 0.488562 0.415651 0.727597 0.000000
H 0.303602 0.588106 0.452422 0.000000
H 0.308073 0.605941 0.478134 0.000000
H 0.339484 0.614487 0.499738 0.000000
H 0.361675 0.637109 0.500504 0.000000
H 0.330229 0.668787 0.488117 0.000000
H 0.307709 0.645814 0.487173 0.000000
H 0.321737 0.653408 0.515374 0.000000
H 0.370439 0.668938 0.480378 0.000000
H 0.385528 0.676334 0.453011 0.000000
H 0.407684 0.655336 0.428288 0.000000
H 0.402893 0.638898 0.401591 0.000000
H 0.371128 0.669545 0.387776 0.000000
H 0.399746 0.683720 0.393400 0.000000
H 0.375624 0.686315 0.414861 0.000000
H 0.372930 0.629187 0.378694 0.000000
H 0.349484 0.607202 0.378707 0.000000
H 0.341111 0.575999 0.400064 0.000000
H 0.324124 0.569780 0.426162 0.000000
H 0.309639 0.607833 0.387291 0.000000
H 0.292669 0.601352 0.413856 0.000000
H 0.296298 0.578548 0.391095 0.000000
H 0.598413 0.446896 0.643028 0.000000
H 0.610589 0.441154 0.599941 0.000000
H 0.536734 0.421518 0.581837 0.000000
H 0.524666 0.427217 0.625195 0.000000
H 0.569122 0.446512 0.674838 0.000000
H 0.603613 0.460382 0.560767 0.000000
H 0.601295 0.419088 0.494213 0.000000
H 0.561055 0.394603 0.557023 0.000000
H 0.572498 0.357432 0.539065 0.000000
H 0.553981 0.323730 0.515545 0.000000
H 0.534979 0.307793 0.479660 0.000000
H 0.547043 0.370584 0.453114 0.000000
H 0.565115 0.404715 0.476757 0.000000
H 0.645222 0.433422 0.499548 0.000000
H 0.672216 0.464433 0.480126 0.000000
H 0.658088 0.532003 0.479295 0.000000
H 0.625232 0.521517 0.506069 0.000000
H 0.598778 0.490818 0.526221 0.000000
H 0.517356 0.408643 0.335736 0.000000
H 0.523694 0.453224 0.338458 0.000000
H 0.463105 0.458679 0.388116 0.000000
H 0.456596 0.413898 0.384961 0.000000
H 0.497108 0.372291 0.346929 0.000000
H 0.537450 0.481950 0.368020 0.000000
H 0.510324 0.555262 0.373872 0.000000
H 0.460292 0.495519 0.364961 0.000000
H 0.439152 0.521187 0.392571 0.000000
H 0.404676 0.550560 0.394613 0.000000
H 0.407175 0.613848 0.366046 0.000000
H 0.445793 0.601619 0.351676 0.000000
H 0.479974 0.572355 0.349135 0.000000
H 0.567361 0.504654 0.346157 0.000000
H 0.609696 0.519277 0.351461 0.000000
H 0.639343 0.544231 0.370408 0.000000
H 0.585733 0.570077 0.406129 0.000000
H 0.543215 0.555125 0.401297 0.000000
H 0.596808 0.657710 0.502265 0.000000
H 0.557397 0.653225 0.523685 0.000000
H 0.577932 0.580742 0.545936 0.000000
H 0.617742 0.585629 0.524812 0.000000
H 0.634428 0.642109 0.488033 0.000000
H 0.521261 0.631568 0.518372 0.000000
H 0.475800 0.600840 0.574401 0.000000
H 0.553680 0.593449 0.578882 0.000000
H 0.484152 0.557426 0.587076 0.000000
H 0.479606 0.533188 0.624984 0.000000
H 0.492253 0.522555 0.665312 0.000000
H 0.533234 0.577959 0.660442 0.000000
H 0.538561 0.601863 0.622137 0.000000
H 0.456377 0.638857 0.565854 0.000000
H 0.419247 0.654071 0.545279 0.000000
H 0.395547 0.661609 0.510117 0.000000
H 0.448920 0.633487 0.475719 0.000000
H 0.486231 0.617940 0.496279 0.000000
H 0.402445 0.353611 0.501623 0.000000
H 0.390922 0.389552 0.526913 0.000000
H 0.429928 0.436580 0.477639 0.000000
H 0.441874 0.400656 0.452943 0.000000
H 0.443654 0.357907 0.446092 0.000000
H 0.412864 0.420734 0.552982 0.000000
H 0.383435 0.493385 0.557749 0.000000
H 0.391061 0.458582 0.487916 0.000000
H 0.345918 0.504306 0.534318 0.000000
H 0.328946 0.541159 0.513867 0.000000
H 0.359955 0.572638 0.460588 0.000000
H 0.387556 0.539211 0.461897 0.000000
H 0.404154 0.502118 0.481713 0.000000
H 0.414376 0.494521 0.586546 0.000000
H 0.424230 0.493962 0.630761 0.000000
H 0.418802 0.437193 0.670194 0.000000
H 0.402660 0.418720 0.634503 0.000000
H 0.392395 0.419216 0.590612 0.000000
