data_C25_PM
_symmetry_space_group_name_H-M   'P 1'
_cell_length_a 60.108728
_cell_length_b 60.108728
_cell_length_c 60.108728
_cell_angle_alpha 90.000000
_cell_angle_beta 90.000000
_cell_angle_gamma 90.000000
_symmetry_Int_Tables_number 1

loop_
_symmetry_equiv_pos_as_xyz
 'x, y, z'

loop_
_atom_site_label
_atom_site_fract_x
_atom_site_fract_y
_atom_site_fract_z
_atom_site_charge
C 0.342909 0.334086 0.457722 0.000000
N 0.344583 0.357272 0.465203 0.000000
C 0.364147 0.321823 0.451626 0.000000
C 0.372021 0.322320 0.429526 0.000000
C 0.391794 0.310921 0.423964 0.000000
C 0.404114 0.299803 0.440556 0.000000
C 0.396145 0.299390 0.462644 0.000000
C 0.376397 0.310715 0.468337 0.000000
C 0.368168 0.311083 0.492224 0.000000
C 0.352658 0.291540 0.497887 0.000000
C 0.409410 0.287142 0.480451 0.000000
N 0.427508 0.301057 0.488844 0.000000
C 0.425864 0.288375 0.434716 0.000000
C 0.422767 0.263951 0.427691 0.000000
C 0.400281 0.311398 0.400168 0.000000
N 0.415104 0.329590 0.393438 0.000000
C 0.359349 0.335083 0.411793 0.000000
C 0.341812 0.320850 0.399747 0.000000
C 0.411913 0.562212 0.709381 0.000000
N 0.404884 0.557694 0.686424 0.000000
C 0.436259 0.559057 0.715432 0.000000
C 0.451436 0.576775 0.712602 0.000000
C 0.474004 0.573734 0.718269 0.000000
C 0.481635 0.552916 0.725996 0.000000
C 0.466394 0.535263 0.728698 0.000000
C 0.443788 0.538149 0.722978 0.000000
C 0.427687 0.518770 0.724759 0.000000
C 0.416468 0.517055 0.747690 0.000000
C 0.474530 0.512737 0.736699 0.000000
N 0.482429 0.496709 0.720042 0.000000
C 0.506138 0.549502 0.731087 0.000000
C 0.512301 0.554967 0.755320 0.000000
C 0.490576 0.592667 0.715172 0.000000
N 0.502191 0.590314 0.693933 0.000000
C 0.443363 0.598876 0.703421 0.000000
C 0.436308 0.615399 0.721635 0.000000
C 0.464314 0.704529 0.387089 0.000000
N 0.477938 0.695785 0.405403 0.000000
C 0.448526 0.688717 0.375301 0.000000
C 0.426743 0.685662 0.383579 0.000000
C 0.412160 0.670794 0.372756 0.000000
C 0.419555 0.658297 0.354280 0.000000
C 0.441304 0.661507 0.346070 0.000000
C 0.455982 0.676391 0.356770 0.000000
C 0.479686 0.679012 0.348453 0.000000
C 0.482168 0.697437 0.330852 0.000000
C 0.449354 0.648338 0.325967 0.000000
N 0.461787 0.628681 0.332996 0.000000
C 0.404091 0.641443 0.343552 0.000000
C 0.390256 0.651088 0.324319 0.000000
C 0.388683 0.667535 0.381532 0.000000
N 0.384778 0.650237 0.398329 0.000000
C 0.419116 0.698197 0.404149 0.000000
C 0.408393 0.720826 0.398826 0.000000
C 0.729740 0.506724 0.485413 0.000000
N 0.711284 0.521440 0.491664 0.000000
C 0.724651 0.482775 0.479131 0.000000
C 0.724302 0.466172 0.495724 0.000000
C 0.719928 0.443872 0.489784 0.000000
C 0.715190 0.438290 0.467474 0.000000
C 0.715377 0.455029 0.451003 0.000000
C 0.719626 0.477364 0.456817 0.000000
C 0.718708 0.495619 0.439370 0.000000
C 0.740965 0.499426 0.427336 0.000000
C 0.710369 0.448907 0.426926 0.000000
N 0.686384 0.447574 0.423122 0.000000
C 0.709784 0.414412 0.461246 0.000000
C 0.730478 0.400641 0.455123 0.000000
C 0.719378 0.426003 0.507642 0.000000
N 0.698108 0.421321 0.518702 0.000000
C 0.728577 0.472294 0.519857 0.000000
C 0.753280 0.470879 0.526393 0.000000
C 0.391686 0.548792 0.640693 0.000000
C 0.386844 0.544419 0.618549 0.000000
C 0.403780 0.537629 0.603657 0.000000
C 0.398911 0.533115 0.580965 0.000000
C 0.395060 0.529145 0.561423 0.000000
C 0.391132 0.524487 0.538526 0.000000
C 0.386587 0.502597 0.531495 0.000000
C 0.383246 0.497809 0.508801 0.000000
C 0.379175 0.475562 0.501681 0.000000
C 0.376031 0.456509 0.495377 0.000000
C 0.372739 0.434290 0.487946 0.000000
C 0.390932 0.421306 0.480751 0.000000
C 0.387666 0.399521 0.473626 0.000000
C 0.366325 0.389964 0.473364 0.000000
C 0.363632 0.366837 0.465884 0.000000
C 0.348142 0.402944 0.480434 0.000000
C 0.351238 0.424675 0.487595 0.000000
C 0.384342 0.515178 0.493114 0.000000
C 0.388788 0.537152 0.499914 0.000000
C 0.390249 0.554577 0.483929 0.000000
C 0.391897 0.569538 0.470291 0.000000
C 0.394074 0.586821 0.454296 0.000000
C 0.415003 0.591806 0.444891 0.000000
C 0.417002 0.608619 0.429090 0.000000
C 0.398371 0.620951 0.422172 0.000000
C 0.401142 0.638492 0.405359 0.000000
C 0.377504 0.616042 0.431636 0.000000
C 0.375334 0.599317 0.447397 0.000000
C 0.392131 0.541691 0.522655 0.000000
C 0.425689 0.535422 0.611800 0.000000
C 0.430379 0.539827 0.634034 0.000000
C 0.413561 0.546580 0.648820 0.000000
C 0.419323 0.551228 0.672114 0.000000
C 0.492089 0.494629 0.659901 0.000000
C 0.499577 0.480757 0.642944 0.000000
C 0.506453 0.458823 0.647752 0.000000
C 0.513960 0.444550 0.630469 0.000000
C 0.520288 0.432490 0.615399 0.000000
C 0.527435 0.418936 0.597334 0.000000
C 0.548501 0.422327 0.587653 0.000000
C 0.555424 0.409516 0.569296 0.000000
C 0.576702 0.413233 0.559559 0.000000
C 0.594976 0.416592 0.551363 0.000000
C 0.616308 0.420475 0.541937 0.000000
C 0.619267 0.436548 0.525088 0.000000
C 0.640233 0.440163 0.515947 0.000000
C 0.658841 0.427984 0.523175 0.000000
C 0.680640 0.432096 0.512911 0.000000
C 0.655904 0.411997 0.540049 0.000000
C 0.635073 0.408272 0.549264 0.000000
C 0.541051 0.393222 0.560577 0.000000
C 0.519924 0.389642 0.570098 0.000000
C 0.505174 0.373780 0.560678 0.000000
C 0.492169 0.360758 0.552071 0.000000
C 0.476756 0.346271 0.541681 0.000000
C 0.459472 0.336224 0.554015 0.000000
C 0.444111 0.322480 0.543503 0.000000
C 0.445288 0.318469 0.520482 0.000000
C 0.428323 0.304516 0.509872 0.000000
C 0.462619 0.328362 0.508180 0.000000
C 0.478120 0.341941 0.518542 0.000000
C 0.513303 0.402436 0.588590 0.000000
C 0.505629 0.451389 0.670090 0.000000
C 0.498190 0.465372 0.686881 0.000000
C 0.491239 0.487224 0.682070 0.000000
C 0.483231 0.502383 0.699497 0.000000
C 0.444591 0.365454 0.380458 0.000000
C 0.458599 0.383114 0.375527 0.000000
C 0.463916 0.399160 0.391924 0.000000
C 0.478374 0.417158 0.386882 0.000000
C 0.490905 0.432518 0.382497 0.000000
C 0.505427 0.450615 0.377797 0.000000
C 0.528416 0.448728 0.381859 0.000000
C 0.542820 0.466723 0.377538 0.000000
C 0.565939 0.464880 0.381916 0.000000
C 0.585794 0.463628 0.386013 0.000000
C 0.608758 0.462315 0.391132 0.000000
C 0.624364 0.475875 0.379975 0.000000
C 0.646836 0.474663 0.385352 0.000000
C 0.654478 0.460129 0.402020 0.000000
C 0.678228 0.459642 0.407540 0.000000
C 0.638940 0.446494 0.413072 0.000000
C 0.616528 0.447469 0.407719 0.000000
C 0.534020 0.486754 0.369178 0.000000
C 0.511046 0.488886 0.365176 0.000000
C 0.502200 0.509366 0.357459 0.000000
C 0.494483 0.527119 0.351318 0.000000
C 0.485130 0.547678 0.344606 0.000000
C 0.494453 0.568079 0.351840 0.000000
C 0.484882 0.588168 0.345800 0.000000
C 0.465808 0.588680 0.332190 0.000000
C 0.455083 0.609691 0.325988 0.000000
C 0.456739 0.568455 0.324718 0.000000
C 0.466114 0.548216 0.330843 0.000000
C 0.496852 0.470702 0.369358 0.000000
C 0.454660 0.396854 0.413376 0.000000
C 0.440637 0.379061 0.418151 0.000000
C 0.435401 0.363100 0.401884 0.000000
C 0.420598 0.344523 0.407636 0.000000
C 0.507970 0.624361 0.643667 0.000000
C 0.516904 0.624447 0.622333 0.000000
C 0.529764 0.606284 0.614826 0.000000
C 0.538575 0.606038 0.592970 0.000000
C 0.545778 0.605567 0.573979 0.000000
C 0.553570 0.604631 0.551705 0.000000
C 0.572380 0.591774 0.546209 0.000000
C 0.579845 0.590495 0.524051 0.000000
C 0.598901 0.577534 0.518589 0.000000
C 0.615206 0.566374 0.513901 0.000000
C 0.634210 0.553371 0.508540 0.000000
C 0.655769 0.562864 0.508951 0.000000
C 0.674326 0.550179 0.503697 0.000000
C 0.672104 0.527613 0.497769 0.000000
C 0.691368 0.513803 0.491811 0.000000
C 0.650713 0.518168 0.497433 0.000000
C 0.631994 0.530736 0.502712 0.000000
C 0.568254 0.602058 0.507296 0.000000
C 0.549385 0.614923 0.512543 0.000000
C 0.537356 0.626008 0.495421 0.000000
C 0.526729 0.635063 0.480672 0.000000
C 0.514270 0.645217 0.463341 0.000000
C 0.500065 0.632333 0.449788 0.000000
C 0.487968 0.642312 0.432766 0.000000
C 0.489638 0.665270 0.428655 0.000000
C 0.476629 0.675111 0.410470 0.000000
C 0.503766 0.678146 0.442199 0.000000
C 0.515827 0.668364 0.459276 0.000000
C 0.542258 0.616296 0.534799 0.000000
C 0.533386 0.588176 0.629488 0.000000
C 0.524269 0.588167 0.650684 0.000000
C 0.511336 0.606255 0.658103 0.000000
C 0.501024 0.606588 0.680207 0.000000
H 0.331197 0.334143 0.443654 0.000000
H 0.333868 0.325177 0.470915 0.000000
H 0.382411 0.311085 0.503663 0.000000
H 0.359534 0.326853 0.495502 0.000000
H 0.346892 0.292516 0.515214 0.000000
H 0.337943 0.291412 0.487033 0.000000
H 0.361104 0.275481 0.495600 0.000000
H 0.416995 0.272194 0.473102 0.000000
H 0.398422 0.281218 0.493932 0.000000
H 0.434209 0.297532 0.421273 0.000000
H 0.437256 0.289391 0.448958 0.000000
H 0.411948 0.262559 0.413010 0.000000
H 0.438822 0.256197 0.423635 0.000000
H 0.414951 0.254107 0.440981 0.000000
H 0.386317 0.311640 0.388333 0.000000
H 0.409175 0.295910 0.396165 0.000000
H 0.371080 0.341917 0.399552 0.000000
H 0.351266 0.349677 0.419265 0.000000
H 0.349469 0.306417 0.391532 0.000000
H 0.333048 0.330623 0.387019 0.000000
H 0.329367 0.314337 0.411458 0.000000
H 0.406523 0.579326 0.713032 0.000000
H 0.401232 0.551877 0.720065 0.000000
H 0.436439 0.503147 0.721078 0.000000
H 0.414874 0.520183 0.711800 0.000000
H 0.406960 0.532186 0.751578 0.000000
H 0.404992 0.502835 0.748338 0.000000
H 0.428833 0.514965 0.761001 0.000000
H 0.488238 0.514696 0.748683 0.000000
H 0.461506 0.504131 0.746244 0.000000
H 0.510813 0.532211 0.727438 0.000000
H 0.516141 0.559636 0.719648 0.000000
H 0.503004 0.544499 0.767089 0.000000
H 0.530151 0.552334 0.758284 0.000000
H 0.508409 0.572355 0.759462 0.000000
H 0.503173 0.591922 0.728426 0.000000
H 0.482359 0.609014 0.716786 0.000000
H 0.456402 0.606397 0.693071 0.000000
H 0.429374 0.596072 0.692003 0.000000
H 0.430465 0.631129 0.714365 0.000000
H 0.422797 0.608546 0.731880 0.000000
H 0.450182 0.619162 0.732938 0.000000
H 0.476032 0.712070 0.375218 0.000000
H 0.455199 0.718827 0.393982 0.000000
H 0.490783 0.682563 0.362540 0.000000
H 0.485525 0.663076 0.341699 0.000000
H 0.477053 0.713701 0.337471 0.000000
H 0.499504 0.698819 0.325207 0.000000
H 0.471716 0.694141 0.316206 0.000000
H 0.460729 0.658743 0.316102 0.000000
H 0.435363 0.644064 0.314856 0.000000
H 0.392893 0.634472 0.356197 0.000000
H 0.413784 0.627179 0.337524 0.000000
H 0.379247 0.638383 0.317121 0.000000
H 0.379851 0.665017 0.329989 0.000000
H 0.400975 0.657536 0.310981 0.000000
H 0.382287 0.683093 0.388752 0.000000
H 0.377099 0.663971 0.367811 0.000000
H 0.433269 0.700688 0.415447 0.000000
H 0.407282 0.687938 0.413576 0.000000
H 0.393728 0.718867 0.388078 0.000000
H 0.403110 0.729341 0.414120 0.000000
H 0.420059 0.731787 0.389982 0.000000
H 0.741601 0.507329 0.499344 0.000000
H 0.738553 0.515213 0.471792 0.000000
H 0.713263 0.511245 0.447128 0.000000
H 0.705738 0.491718 0.427104 0.000000
H 0.746585 0.484294 0.418747 0.000000
H 0.739529 0.512795 0.414939 0.000000
H 0.754151 0.504061 0.439128 0.000000
H 0.717369 0.432379 0.423332 0.000000
H 0.718544 0.460570 0.415325 0.000000
H 0.697888 0.414307 0.447385 0.000000
H 0.701018 0.406301 0.475088 0.000000
H 0.742357 0.399913 0.469010 0.000000
H 0.725864 0.383504 0.450720 0.000000
H 0.739384 0.407913 0.440894 0.000000
H 0.731301 0.429800 0.520996 0.000000
H 0.725196 0.409985 0.500952 0.000000
H 0.718751 0.461439 0.530803 0.000000
H 0.722380 0.489177 0.523130 0.000000
H 0.755691 0.475437 0.543936 0.000000
H 0.759838 0.453979 0.523980 0.000000
H 0.763513 0.482075 0.516177 0.000000
H 0.378681 0.554042 0.652198 0.000000
H 0.369887 0.546168 0.612353 0.000000
H 0.385848 0.489220 0.543692 0.000000
H 0.407560 0.428538 0.480894 0.000000
H 0.401908 0.389631 0.468174 0.000000
H 0.379137 0.358228 0.460973 0.000000
H 0.331602 0.395500 0.480195 0.000000
H 0.337091 0.434608 0.493093 0.000000
H 0.381838 0.511562 0.475538 0.000000
H 0.429539 0.582312 0.450120 0.000000
H 0.433285 0.612310 0.421907 0.000000
H 0.418295 0.640878 0.399146 0.000000
H 0.363110 0.625684 0.426262 0.000000
H 0.359129 0.595572 0.454634 0.000000
H 0.395693 0.558631 0.527998 0.000000
H 0.438858 0.530225 0.600470 0.000000
H 0.447407 0.538069 0.640142 0.000000
H 0.437043 0.548866 0.676471 0.000000
H 0.486788 0.511568 0.655979 0.000000
H 0.500145 0.486650 0.625804 0.000000
H 0.559492 0.435084 0.594340 0.000000
H 0.604955 0.446073 0.519318 0.000000
H 0.642301 0.452611 0.502863 0.000000
H 0.680937 0.444988 0.499795 0.000000
H 0.670368 0.402588 0.545644 0.000000
H 0.632908 0.395847 0.562300 0.000000
H 0.546234 0.383397 0.546266 0.000000
H 0.458293 0.339417 0.571823 0.000000
H 0.430787 0.314836 0.553211 0.000000
H 0.415862 0.297150 0.521338 0.000000
H 0.463471 0.325191 0.490340 0.000000
H 0.491465 0.349616 0.508957 0.000000
H 0.496943 0.399819 0.595921 0.000000
H 0.510944 0.434474 0.673915 0.000000
H 0.497553 0.459709 0.704102 0.000000
H 0.478016 0.519048 0.693702 0.000000
H 0.440457 0.353051 0.367886 0.000000
H 0.465702 0.384841 0.358928 0.000000
H 0.535127 0.433254 0.388470 0.000000
H 0.618578 0.487293 0.367133 0.000000
H 0.658734 0.485253 0.376609 0.000000
H 0.688932 0.470636 0.397268 0.000000
H 0.644950 0.435213 0.425940 0.000000
H 0.604566 0.436903 0.416334 0.000000
H 0.545039 0.500769 0.365962 0.000000
H 0.509167 0.567733 0.362439 0.000000
H 0.491836 0.603906 0.351540 0.000000
H 0.440468 0.608128 0.314813 0.000000
H 0.441990 0.568673 0.314109 0.000000
H 0.458867 0.532603 0.325142 0.000000
H 0.479067 0.472303 0.366316 0.000000
H 0.458620 0.409142 0.426109 0.000000
H 0.433573 0.377409 0.434815 0.000000
H 0.414547 0.344258 0.425006 0.000000
H 0.498010 0.638487 0.649274 0.000000
H 0.514047 0.638477 0.611207 0.000000
H 0.581202 0.582729 0.559192 0.000000
H 0.657577 0.580335 0.513472 0.000000
H 0.690945 0.557443 0.503971 0.000000
H 0.687527 0.496360 0.487378 0.000000
H 0.648792 0.500676 0.492884 0.000000
H 0.615485 0.523246 0.502367 0.000000
H 0.573880 0.600968 0.490109 0.000000
H 0.498696 0.614510 0.452840 0.000000
H 0.477025 0.632192 0.422364 0.000000
H 0.465612 0.663471 0.401437 0.000000
H 0.504978 0.695950 0.438950 0.000000
H 0.526735 0.678401 0.469730 0.000000
H 0.527650 0.626176 0.538950 0.000000
H 0.543354 0.574134 0.623788 0.000000
H 0.526864 0.574174 0.661931 0.000000
H 0.491802 0.622040 0.684353 0.000000
