data_C26_PM
_symmetry_space_group_name_H-M   'P 1'
_cell_length_a 64.093730
_cell_length_b 64.093730
_cell_length_c 64.093730
_cell_angle_alpha 90.000000
_cell_angle_beta 90.000000
_cell_angle_gamma 90.000000
_symmetry_Int_Tables_number 1

loop_
_symmetry_equiv_pos_as_xyz
 'x, y, z'

loop_
_atom_site_label
_atom_site_fract_x
_atom_site_fract_y
_atom_site_fract_z
_atom_site_charge
C 0.469357 0.522336 0.252571 0.000000
N 0.476864 0.533508 0.271136 0.000000
C 0.461021 0.500337 0.255407 0.000000
C 0.474840 0.483233 0.254446 0.000000
C 0.467166 0.462803 0.257447 0.000000
C 0.445951 0.459519 0.262296 0.000000
C 0.432176 0.476698 0.263250 0.000000
C 0.439742 0.497146 0.260166 0.000000
C 0.425122 0.515683 0.262054 0.000000
C 0.414667 0.521480 0.241243 0.000000
C 0.409518 0.473116 0.269089 0.000000
N 0.404199 0.472629 0.291385 0.000000
C 0.438032 0.437632 0.266738 0.000000
C 0.430229 0.426206 0.247132 0.000000
C 0.482187 0.444510 0.256843 0.000000
N 0.492785 0.438745 0.276337 0.000000
C 0.497919 0.486769 0.250403 0.000000
C 0.503581 0.486431 0.227078 0.000000
C 0.386201 0.707466 0.567345 0.000000
N 0.403831 0.697209 0.557126 0.000000
C 0.376056 0.692645 0.582945 0.000000
C 0.385288 0.689856 0.602752 0.000000
C 0.376076 0.676053 0.617202 0.000000
C 0.358227 0.664409 0.611600 0.000000
C 0.348985 0.667394 0.591853 0.000000
C 0.358060 0.681288 0.577337 0.000000
C 0.348238 0.683894 0.555930 0.000000
C 0.332310 0.701816 0.555079 0.000000
C 0.329809 0.654881 0.585753 0.000000
N 0.332790 0.635009 0.574720 0.000000
C 0.349083 0.648707 0.626802 0.000000
C 0.332438 0.658179 0.641268 0.000000
C 0.385966 0.672820 0.638490 0.000000
N 0.401443 0.656094 0.640819 0.000000
C 0.405045 0.701609 0.608422 0.000000
C 0.400710 0.722804 0.618814 0.000000
C 0.745012 0.511199 0.508617 0.000000
N 0.727553 0.497924 0.501992 0.000000
C 0.740067 0.531053 0.520553 0.000000
C 0.737115 0.550046 0.509816 0.000000
C 0.732121 0.568319 0.521088 0.000000
C 0.729306 0.567462 0.542900 0.000000
C 0.732390 0.548433 0.553578 0.000000
C 0.737403 0.530137 0.542415 0.000000
C 0.739960 0.509544 0.553866 0.000000
C 0.762480 0.505664 0.561240 0.000000
C 0.729259 0.547631 0.577042 0.000000
N 0.708155 0.543638 0.585007 0.000000
C 0.722898 0.586914 0.554834 0.000000
C 0.741573 0.599954 0.562417 0.000000
C 0.728586 0.588679 0.509518 0.000000
N 0.707502 0.593180 0.501732 0.000000
C 0.739297 0.550879 0.486247 0.000000
C 0.761722 0.555673 0.479134 0.000000
C 0.474696 0.267465 0.583776 0.000000
N 0.485953 0.280019 0.568237 0.000000
C 0.458658 0.278386 0.597353 0.000000
C 0.438031 0.280745 0.589954 0.000000
C 0.423183 0.291310 0.602270 0.000000
C 0.429077 0.300428 0.621461 0.000000
C 0.449680 0.297940 0.628764 0.000000
C 0.464585 0.287149 0.616639 0.000000
C 0.486873 0.285110 0.624358 0.000000
C 0.490377 0.265342 0.637515 0.000000
C 0.456375 0.307721 0.649381 0.000000
N 0.467364 0.327348 0.645554 0.000000
C 0.413191 0.312926 0.633838 0.000000
C 0.401206 0.299853 0.649995 0.000000
C 0.400996 0.293989 0.594442 0.000000
N 0.396033 0.312796 0.582330 0.000000
C 0.431910 0.272072 0.568780 0.000000
C 0.423813 0.249507 0.569827 0.000000
C 0.437938 0.677293 0.534572 0.000000
C 0.452849 0.666808 0.522852 0.000000
C 0.449459 0.662219 0.501593 0.000000
C 0.430677 0.668873 0.492404 0.000000
C 0.415836 0.679650 0.504066 0.000000
C 0.419124 0.683843 0.525329 0.000000
C 0.402863 0.694600 0.537330 0.000000
C 0.465092 0.650376 0.489459 0.000000
C 0.486543 0.654696 0.491099 0.000000
C 0.501186 0.643338 0.479758 0.000000
C 0.495127 0.626861 0.466549 0.000000
C 0.473643 0.622489 0.465081 0.000000
C 0.458958 0.634091 0.476088 0.000000
C 0.510664 0.614555 0.454638 0.000000
C 0.531059 0.611698 0.462159 0.000000
C 0.545859 0.600035 0.450987 0.000000
C 0.539947 0.590950 0.431947 0.000000
C 0.519653 0.593369 0.424090 0.000000
C 0.505281 0.605284 0.435509 0.000000
C 0.513396 0.583530 0.404118 0.000000
C 0.494201 0.573041 0.402367 0.000000
C 0.488258 0.563502 0.383771 0.000000
C 0.501169 0.564272 0.366037 0.000000
C 0.520291 0.574930 0.367733 0.000000
C 0.526349 0.584221 0.386428 0.000000
C 0.494824 0.554183 0.346279 0.000000
C 0.498047 0.564180 0.326932 0.000000
C 0.491870 0.554909 0.308339 0.000000
C 0.482413 0.535098 0.308360 0.000000
C 0.475499 0.524803 0.289091 0.000000
C 0.479427 0.524976 0.327567 0.000000
C 0.485392 0.534365 0.346229 0.000000
C 0.567231 0.597074 0.459289 0.000000
C 0.578156 0.613690 0.468563 0.000000
C 0.598352 0.611033 0.476127 0.000000
C 0.608440 0.591564 0.474955 0.000000
C 0.597429 0.574893 0.465847 0.000000
C 0.577322 0.577621 0.458067 0.000000
C 0.629928 0.588761 0.482883 0.000000
C 0.635804 0.570581 0.493696 0.000000
C 0.656152 0.568039 0.500914 0.000000
C 0.671386 0.583424 0.497477 0.000000
C 0.692782 0.580022 0.504958 0.000000
C 0.665550 0.601665 0.486739 0.000000
C 0.645227 0.604274 0.479696 0.000000
C 0.339132 0.595728 0.552982 0.000000
C 0.343516 0.577356 0.542347 0.000000
C 0.364162 0.572011 0.536839 0.000000
C 0.380243 0.585835 0.542543 0.000000
C 0.375870 0.604220 0.553275 0.000000
C 0.355281 0.609486 0.558645 0.000000
C 0.351259 0.629043 0.569892 0.000000
C 0.368860 0.552480 0.525481 0.000000
C 0.384340 0.551912 0.509914 0.000000
C 0.389010 0.533521 0.499348 0.000000
C 0.378513 0.514809 0.503963 0.000000
C 0.363007 0.515364 0.519485 0.000000
C 0.358215 0.533797 0.529947 0.000000
C 0.383711 0.495203 0.492880 0.000000
C 0.387601 0.495277 0.471313 0.000000
C 0.392654 0.476841 0.460620 0.000000
C 0.394052 0.458150 0.471956 0.000000
C 0.390454 0.457600 0.493558 0.000000
C 0.385097 0.476237 0.503771 0.000000
C 0.392908 0.437882 0.505372 0.000000
C 0.379175 0.432509 0.521625 0.000000
C 0.381673 0.414059 0.532828 0.000000
C 0.398116 0.400194 0.528376 0.000000
C 0.411790 0.405541 0.512039 0.000000
C 0.409230 0.423939 0.500787 0.000000
C 0.401146 0.380849 0.540584 0.000000
C 0.421321 0.373730 0.545538 0.000000
C 0.424206 0.355644 0.557218 0.000000
C 0.407080 0.343925 0.564268 0.000000
C 0.410824 0.324971 0.576572 0.000000
C 0.386860 0.350901 0.559284 0.000000
C 0.383994 0.369016 0.547724 0.000000
C 0.396218 0.476971 0.437785 0.000000
C 0.388643 0.460762 0.425070 0.000000
C 0.391936 0.460847 0.403603 0.000000
C 0.403152 0.477047 0.393921 0.000000
C 0.410757 0.493243 0.406648 0.000000
C 0.407306 0.493246 0.428098 0.000000
C 0.406865 0.477052 0.371167 0.000000
C 0.391295 0.470360 0.357107 0.000000
C 0.394714 0.470329 0.335709 0.000000
C 0.413956 0.476962 0.327481 0.000000
C 0.418159 0.477174 0.304963 0.000000
C 0.429532 0.483554 0.341417 0.000000
C 0.426074 0.483684 0.362862 0.000000
C 0.507054 0.305110 0.536907 0.000000
C 0.516932 0.318252 0.522781 0.000000
C 0.514896 0.340128 0.524206 0.000000
C 0.502502 0.348276 0.540394 0.000000
C 0.492476 0.335100 0.554483 0.000000
C 0.494593 0.313327 0.553019 0.000000
C 0.483764 0.299903 0.568126 0.000000
C 0.525441 0.354128 0.509195 0.000000
C 0.534533 0.372969 0.515863 0.000000
C 0.544294 0.386338 0.501815 0.000000
C 0.545272 0.381576 0.480411 0.000000
C 0.536278 0.362711 0.473719 0.000000
C 0.526670 0.349228 0.487824 0.000000
C 0.555168 0.396293 0.465589 0.000000
C 0.573434 0.407041 0.471142 0.000000
C 0.582556 0.421749 0.457716 0.000000
C 0.573139 0.425454 0.438288 0.000000
C 0.554902 0.414920 0.432258 0.000000
C 0.546108 0.400346 0.446057 0.000000
C 0.544956 0.419486 0.411899 0.000000
C 0.556994 0.422526 0.393799 0.000000
C 0.547632 0.426957 0.374705 0.000000
C 0.525816 0.428747 0.372895 0.000000
C 0.513788 0.425795 0.391027 0.000000
C 0.523146 0.421175 0.410082 0.000000
C 0.515916 0.433478 0.352611 0.000000
C 0.523610 0.424565 0.334000 0.000000
C 0.514454 0.428846 0.314846 0.000000
C 0.497228 0.442401 0.313515 0.000000
C 0.487319 0.447457 0.293491 0.000000
C 0.489496 0.451337 0.331984 0.000000
C 0.498608 0.446914 0.351220 0.000000
C 0.601334 0.433571 0.464232 0.000000
C 0.603347 0.454954 0.459660 0.000000
C 0.620685 0.466274 0.466245 0.000000
C 0.636874 0.456709 0.477584 0.000000
C 0.634970 0.435277 0.481966 0.000000
C 0.617560 0.423990 0.475497 0.000000
C 0.655257 0.468776 0.484573 0.000000
C 0.653183 0.489339 0.491991 0.000000
C 0.670596 0.500648 0.498446 0.000000
C 0.690692 0.491932 0.497547 0.000000
C 0.708763 0.504444 0.504063 0.000000
C 0.692834 0.471348 0.490195 0.000000
C 0.675453 0.460021 0.483938 0.000000
C 0.487709 0.367695 0.639838 0.000000
C 0.495732 0.387596 0.636901 0.000000
C 0.484708 0.405496 0.643500 0.000000
C 0.465315 0.402502 0.653376 0.000000
C 0.457354 0.382542 0.656556 0.000000
C 0.468325 0.364833 0.649760 0.000000
C 0.459291 0.344067 0.652966 0.000000
C 0.493206 0.426662 0.640064 0.000000
C 0.505853 0.431167 0.622666 0.000000
C 0.513684 0.451143 0.619300 0.000000
C 0.509057 0.467616 0.633030 0.000000
C 0.496479 0.463159 0.650454 0.000000
C 0.488833 0.443128 0.653945 0.000000
C 0.516842 0.488995 0.628968 0.000000
C 0.537458 0.492380 0.622365 0.000000
C 0.544822 0.512568 0.618055 0.000000
C 0.531026 0.529441 0.620199 0.000000
C 0.510259 0.526499 0.626514 0.000000
C 0.503449 0.506197 0.631118 0.000000
C 0.495572 0.544312 0.627166 0.000000
C 0.480460 0.546296 0.642954 0.000000
C 0.466411 0.562891 0.643002 0.000000
C 0.466777 0.578110 0.627174 0.000000
C 0.481981 0.576155 0.611460 0.000000
C 0.496085 0.559659 0.611482 0.000000
C 0.451583 0.595465 0.626785 0.000000
C 0.445378 0.605671 0.645280 0.000000
C 0.431122 0.621992 0.644821 0.000000
C 0.422380 0.628651 0.625808 0.000000
C 0.407119 0.645697 0.624694 0.000000
C 0.428445 0.618494 0.607357 0.000000
C 0.442834 0.602222 0.607817 0.000000
C 0.566665 0.516096 0.611369 0.000000
C 0.578196 0.533216 0.618837 0.000000
C 0.598734 0.536503 0.612564 0.000000
C 0.608604 0.522910 0.598421 0.000000
C 0.597017 0.505864 0.590845 0.000000
C 0.576530 0.502489 0.597259 0.000000
C 0.630428 0.526469 0.591837 0.000000
C 0.636807 0.522950 0.571131 0.000000
C 0.657342 0.526667 0.565024 0.000000
C 0.672245 0.533897 0.579387 0.000000
C 0.693679 0.538031 0.572388 0.000000
C 0.665996 0.537185 0.600181 0.000000
C 0.645511 0.533573 0.606224 0.000000
H 0.482322 0.522515 0.241329 0.000000
H 0.457502 0.532477 0.245401 0.000000
H 0.433677 0.529235 0.268134 0.000000
H 0.413065 0.512412 0.273796 0.000000
H 0.405422 0.508408 0.235090 0.000000
H 0.404230 0.534955 0.243126 0.000000
H 0.426341 0.525419 0.229311 0.000000
H 0.403827 0.458323 0.262516 0.000000
H 0.399364 0.485010 0.262000 0.000000
H 0.425447 0.438280 0.278358 0.000000
H 0.450431 0.428397 0.274146 0.000000
H 0.442678 0.424727 0.235426 0.000000
H 0.424668 0.410454 0.250998 0.000000
H 0.417332 0.434713 0.239681 0.000000
H 0.494567 0.447205 0.245280 0.000000
H 0.474311 0.430293 0.251290 0.000000
H 0.507124 0.474927 0.258696 0.000000
H 0.502753 0.501731 0.257230 0.000000
H 0.520373 0.489043 0.224790 0.000000
H 0.499516 0.471394 0.219898 0.000000
H 0.495088 0.498567 0.218430 0.000000
H 0.392315 0.721180 0.575655 0.000000
H 0.374674 0.713386 0.556003 0.000000
H 0.360433 0.686516 0.544192 0.000000
H 0.340661 0.669280 0.551188 0.000000
H 0.319602 0.699309 0.566321 0.000000
H 0.325374 0.703201 0.539452 0.000000
H 0.339603 0.716828 0.559031 0.000000
H 0.320276 0.651268 0.599551 0.000000
H 0.319351 0.664265 0.575868 0.000000
H 0.361626 0.641857 0.636264 0.000000
H 0.342334 0.635531 0.618154 0.000000
H 0.319280 0.664553 0.632298 0.000000
H 0.326271 0.646403 0.652102 0.000000
H 0.338877 0.671080 0.650556 0.000000
H 0.373912 0.669812 0.650334 0.000000
H 0.393611 0.687207 0.643905 0.000000
H 0.414572 0.703802 0.594359 0.000000
H 0.414658 0.692015 0.618886 0.000000
H 0.391742 0.720943 0.633318 0.000000
H 0.415343 0.730894 0.622627 0.000000
H 0.391529 0.733048 0.608560 0.000000
H 0.755439 0.501110 0.517776 0.000000
H 0.754015 0.514658 0.494409 0.000000
H 0.734919 0.496624 0.543797 0.000000
H 0.729385 0.509063 0.567353 0.000000
H 0.767755 0.518032 0.571886 0.000000
H 0.763769 0.490666 0.569453 0.000000
H 0.773402 0.505435 0.548017 0.000000
H 0.739386 0.535717 0.584152 0.000000
H 0.734388 0.562306 0.584294 0.000000
H 0.713170 0.582523 0.568245 0.000000
H 0.712773 0.596640 0.544995 0.000000
H 0.751698 0.590857 0.572854 0.000000
H 0.751301 0.605142 0.549278 0.000000
H 0.736297 0.613866 0.570940 0.000000
H 0.733009 0.602083 0.519283 0.000000
H 0.739011 0.589836 0.495926 0.000000
H 0.734181 0.536014 0.479404 0.000000
H 0.728614 0.562642 0.479824 0.000000
H 0.772703 0.543763 0.484768 0.000000
H 0.762781 0.556224 0.462028 0.000000
H 0.767097 0.570755 0.485283 0.000000
H 0.467484 0.254532 0.575107 0.000000
H 0.486716 0.259846 0.593383 0.000000
H 0.497646 0.285048 0.611019 0.000000
H 0.491058 0.299033 0.633404 0.000000
H 0.486963 0.251158 0.628489 0.000000
H 0.480129 0.265087 0.651271 0.000000
H 0.506601 0.264377 0.642990 0.000000
H 0.467270 0.297173 0.657422 0.000000
H 0.442918 0.309775 0.659929 0.000000
H 0.402077 0.320332 0.623106 0.000000
H 0.421000 0.325969 0.641735 0.000000
H 0.392764 0.286947 0.642488 0.000000
H 0.411844 0.292857 0.661487 0.000000
H 0.389780 0.309449 0.658452 0.000000
H 0.396316 0.280658 0.584679 0.000000
H 0.389891 0.293643 0.607521 0.000000
H 0.445301 0.272857 0.558110 0.000000
H 0.419962 0.282092 0.561653 0.000000
H 0.409993 0.248312 0.579914 0.000000
H 0.419533 0.243764 0.554246 0.000000
H 0.435668 0.238941 0.576308 0.000000
H 0.440413 0.680464 0.551101 0.000000
H 0.467229 0.661519 0.530277 0.000000
H 0.427917 0.665845 0.475883 0.000000
H 0.401398 0.684848 0.496649 0.000000
H 0.389350 0.700236 0.528087 0.000000
H 0.491732 0.667563 0.500969 0.000000
H 0.517613 0.647644 0.480842 0.000000
H 0.468352 0.609442 0.455527 0.000000
H 0.442466 0.630032 0.474912 0.000000
H 0.535341 0.617919 0.477404 0.000000
H 0.551283 0.581802 0.423142 0.000000
H 0.489828 0.607956 0.428920 0.000000
H 0.483957 0.572113 0.415935 0.000000
H 0.473221 0.555578 0.382819 0.000000
H 0.530710 0.575586 0.354286 0.000000
H 0.541248 0.592415 0.387300 0.000000
H 0.505064 0.579690 0.326679 0.000000
H 0.494092 0.562820 0.293444 0.000000
H 0.468891 0.508991 0.291150 0.000000
H 0.472445 0.509436 0.327769 0.000000
H 0.483191 0.526106 0.360949 0.000000
H 0.570800 0.629014 0.469527 0.000000
H 0.606386 0.624194 0.483340 0.000000
H 0.604930 0.559671 0.464502 0.000000
H 0.569138 0.564383 0.451169 0.000000
H 0.624165 0.558562 0.496827 0.000000
H 0.660357 0.553949 0.509542 0.000000
H 0.695371 0.565246 0.513496 0.000000
H 0.677379 0.613571 0.483961 0.000000
H 0.641088 0.618341 0.471045 0.000000
H 0.323144 0.599899 0.557032 0.000000
H 0.330756 0.567060 0.537760 0.000000
H 0.396386 0.581858 0.538904 0.000000
H 0.388588 0.614670 0.557710 0.000000
H 0.365259 0.638323 0.573855 0.000000
H 0.392663 0.566202 0.505882 0.000000
H 0.401256 0.533521 0.487522 0.000000
H 0.354429 0.501141 0.523222 0.000000
H 0.346284 0.533662 0.542088 0.000000
H 0.385795 0.509773 0.462580 0.000000
H 0.398127 0.443765 0.463829 0.000000
H 0.383004 0.476186 0.520661 0.000000
H 0.366213 0.442886 0.525390 0.000000
H 0.370929 0.410501 0.545542 0.000000
H 0.424508 0.394984 0.507976 0.000000
H 0.420283 0.427774 0.488422 0.000000
H 0.434863 0.382771 0.540587 0.000000
H 0.439997 0.350472 0.561025 0.000000
H 0.427333 0.321900 0.580550 0.000000
H 0.373567 0.341709 0.564597 0.000000
H 0.368212 0.373991 0.543721 0.000000
H 0.379756 0.448072 0.432120 0.000000
H 0.386033 0.447952 0.394187 0.000000
H 0.419218 0.506190 0.399537 0.000000
H 0.413522 0.505935 0.437593 0.000000
H 0.376151 0.465515 0.363188 0.000000
H 0.382565 0.465337 0.324900 0.000000
H 0.434260 0.481516 0.300500 0.000000
H 0.444572 0.488666 0.335250 0.000000
H 0.438530 0.488555 0.373391 0.000000
H 0.508821 0.288222 0.535861 0.000000
H 0.526781 0.311600 0.510591 0.000000
H 0.500337 0.365115 0.541617 0.000000
H 0.482796 0.341726 0.566857 0.000000
H 0.473587 0.308122 0.579380 0.000000
H 0.534130 0.377048 0.532385 0.000000
H 0.550933 0.400968 0.507439 0.000000
H 0.537017 0.358457 0.457251 0.000000
H 0.519624 0.334815 0.482126 0.000000
H 0.580522 0.404109 0.486330 0.000000
H 0.579997 0.436908 0.427736 0.000000
H 0.531850 0.392186 0.441614 0.000000
H 0.573935 0.421100 0.394682 0.000000
H 0.557396 0.429413 0.360980 0.000000
H 0.496822 0.426817 0.390073 0.000000
H 0.513420 0.419148 0.423906 0.000000
H 0.536742 0.413760 0.334791 0.000000
H 0.520334 0.421775 0.300536 0.000000
H 0.474837 0.459356 0.294215 0.000000
H 0.476130 0.461890 0.331196 0.000000
H 0.492542 0.454278 0.365316 0.000000
H 0.590934 0.462892 0.451135 0.000000
H 0.621866 0.482791 0.462299 0.000000
H 0.647167 0.427432 0.490880 0.000000
H 0.616595 0.407368 0.479046 0.000000
H 0.637708 0.496350 0.493043 0.000000
H 0.668673 0.516587 0.504178 0.000000
H 0.705064 0.519893 0.510826 0.000000
H 0.708438 0.464627 0.489365 0.000000
H 0.677464 0.444225 0.477916 0.000000
H 0.496318 0.353949 0.634705 0.000000
H 0.511053 0.389395 0.629714 0.000000
H 0.456159 0.416002 0.658209 0.000000
H 0.442217 0.380605 0.664149 0.000000
H 0.444673 0.343723 0.662240 0.000000
H 0.509097 0.418974 0.611248 0.000000
H 0.522988 0.454270 0.605390 0.000000
H 0.493089 0.475517 0.661663 0.000000
H 0.479680 0.440093 0.667965 0.000000
H 0.548124 0.479159 0.621293 0.000000
H 0.536494 0.545156 0.616639 0.000000
H 0.487155 0.503578 0.635277 0.000000
H 0.479829 0.534739 0.655440 0.000000
H 0.454668 0.563880 0.655287 0.000000
H 0.482840 0.587882 0.599153 0.000000
H 0.507465 0.558368 0.598892 0.000000
H 0.452255 0.600918 0.660113 0.000000
H 0.426493 0.629991 0.659104 0.000000
H 0.400781 0.648925 0.608975 0.000000
H 0.421632 0.623376 0.592513 0.000000
H 0.447016 0.594264 0.593367 0.000000
H 0.571029 0.543910 0.629974 0.000000
H 0.607217 0.550018 0.618489 0.000000
H 0.604319 0.494912 0.580051 0.000000
H 0.567888 0.489214 0.591021 0.000000
H 0.625413 0.517722 0.559619 0.000000
H 0.661950 0.524004 0.548825 0.000000
H 0.696443 0.536131 0.555454 0.000000
H 0.677613 0.542582 0.611374 0.000000
H 0.641021 0.535920 0.622476 0.000000
