data_C2_PM
_symmetry_space_group_name_H-M   'P 1'
_cell_length_a 43.600037
_cell_length_b 43.600037
_cell_length_c 43.600037
_cell_angle_alpha 90.000000
_cell_angle_beta 90.000000
_cell_angle_gamma 90.000000
_symmetry_Int_Tables_number 1

loop_
_symmetry_equiv_pos_as_xyz
 'x, y, z'

loop_
_atom_site_label
_atom_site_fract_x
_atom_site_fract_y
_atom_site_fract_z
_atom_site_charge
C 0.499112 0.565303 0.386868 0.000000
N 0.497924 0.582991 0.415372 0.000000
C 0.500369 0.530518 0.388439 0.000000
C 0.472880 0.513421 0.388807 0.000000
C 0.474088 0.481073 0.388930 0.000000
C 0.502632 0.465828 0.389893 0.000000
C 0.530031 0.483070 0.389694 0.000000
C 0.528984 0.515428 0.389559 0.000000
C 0.558515 0.533901 0.390166 0.000000
C 0.571352 0.540815 0.358014 0.000000
C 0.560766 0.466716 0.389585 0.000000
N 0.575386 0.459141 0.418819 0.000000
C 0.503827 0.431015 0.390552 0.000000
C 0.504548 0.416599 0.358333 0.000000
C 0.444573 0.462584 0.387984 0.000000
N 0.429657 0.453880 0.416774 0.000000
C 0.442145 0.529792 0.388677 0.000000
C 0.429798 0.535938 0.356195 0.000000
C 0.441812 0.465971 0.611653 0.000000
N 0.427739 0.456318 0.582765 0.000000
C 0.471268 0.484509 0.610844 0.000000
C 0.469947 0.516830 0.609680 0.000000
C 0.497366 0.534020 0.610318 0.000000
C 0.526034 0.519006 0.610817 0.000000
C 0.527180 0.486668 0.611747 0.000000
C 0.499855 0.469325 0.611146 0.000000
C 0.501211 0.434499 0.610978 0.000000
C 0.501557 0.420273 0.643273 0.000000
C 0.557966 0.470493 0.613287 0.000000
N 0.573604 0.462388 0.584735 0.000000
C 0.555486 0.537597 0.610633 0.000000
C 0.566947 0.545900 0.642965 0.000000
C 0.495957 0.568824 0.610495 0.000000
N 0.495650 0.585410 0.581333 0.000000
C 0.439179 0.533081 0.608011 0.000000
C 0.425626 0.540755 0.639691 0.000000
C 0.605725 0.443664 0.474564 0.000000
C 0.619092 0.436831 0.502739 0.000000
Br 0.657857 0.416067 0.503531 0.000000
C 0.605103 0.444653 0.530339 0.000000
C 0.576655 0.459835 0.529808 0.000000
C 0.561310 0.468244 0.558744 0.000000
C 0.562947 0.466783 0.501528 0.000000
C 0.577284 0.458847 0.473835 0.000000
C 0.562681 0.466327 0.444266 0.000000
C 0.399056 0.436236 0.471933 0.000000
C 0.385741 0.428230 0.499827 0.000000
Br 0.348451 0.404912 0.499787 0.000000
C 0.398732 0.436704 0.527720 0.000000
C 0.426033 0.453866 0.527805 0.000000
C 0.440032 0.463364 0.557072 0.000000
C 0.439696 0.462001 0.499828 0.000000
C 0.426427 0.453293 0.471821 0.000000
C 0.441137 0.461872 0.442577 0.000000
C 0.495524 0.619778 0.525809 0.000000
C 0.495102 0.634952 0.497729 0.000000
Br 0.493499 0.678899 0.497179 0.000000
C 0.495808 0.619109 0.470017 0.000000
C 0.497049 0.586885 0.470336 0.000000
C 0.498048 0.569445 0.441399 0.000000
C 0.497461 0.571360 0.498524 0.000000
C 0.496665 0.587557 0.526312 0.000000
C 0.496934 0.571001 0.555802 0.000000
H 0.518892 0.574288 0.374028 0.000000
H 0.479217 0.572817 0.373286 0.000000
H 0.554755 0.555553 0.402508 0.000000
H 0.575924 0.521612 0.403633 0.000000
H 0.554895 0.553993 0.344194 0.000000
H 0.592697 0.554130 0.359504 0.000000
H 0.576266 0.519605 0.345310 0.000000
H 0.577834 0.480053 0.376639 0.000000
H 0.559197 0.445000 0.376834 0.000000
H 0.484006 0.422065 0.403293 0.000000
H 0.523999 0.423403 0.403603 0.000000
H 0.524681 0.424322 0.345275 0.000000
H 0.484198 0.423042 0.344926 0.000000
H 0.505329 0.391447 0.359719 0.000000
H 0.426983 0.474717 0.374558 0.000000
H 0.448029 0.441065 0.375270 0.000000
H 0.425263 0.516269 0.401622 0.000000
H 0.444067 0.551597 0.401171 0.000000
H 0.407596 0.547833 0.357091 0.000000
H 0.426630 0.514485 0.343344 0.000000
H 0.445738 0.550194 0.342848 0.000000
H 0.423850 0.478499 0.624198 0.000000
H 0.444995 0.444894 0.625158 0.000000
H 0.481640 0.425315 0.598019 0.000000
H 0.521625 0.426900 0.598287 0.000000
H 0.521395 0.428238 0.656631 0.000000
H 0.502594 0.395124 0.642027 0.000000
H 0.480927 0.426583 0.656316 0.000000
H 0.556048 0.449007 0.626381 0.000000
H 0.574491 0.484172 0.626575 0.000000
H 0.573487 0.524899 0.598385 0.000000
H 0.552115 0.558708 0.597279 0.000000
H 0.571473 0.525246 0.656693 0.000000
H 0.549858 0.559484 0.655572 0.000000
H 0.588251 0.559314 0.641809 0.000000
H 0.475590 0.576757 0.623102 0.000000
H 0.515255 0.578394 0.623638 0.000000
H 0.441511 0.554274 0.594567 0.000000
H 0.422786 0.518904 0.595141 0.000000
H 0.403438 0.552481 0.637387 0.000000
H 0.422047 0.519941 0.653455 0.000000
H 0.441009 0.555725 0.652908 0.000000
H 0.616679 0.437540 0.452972 0.000000
H 0.615540 0.439334 0.552393 0.000000
H 0.538777 0.479707 0.556516 0.000000
H 0.540808 0.478555 0.501076 0.000000
H 0.540379 0.478374 0.445531 0.000000
H 0.388893 0.429585 0.450111 0.000000
H 0.388307 0.430501 0.549548 0.000000
H 0.461487 0.476815 0.555378 0.000000
H 0.460951 0.475308 0.499852 0.000000
H 0.462499 0.475450 0.444413 0.000000
H 0.494934 0.632168 0.547484 0.000000
H 0.495494 0.630967 0.448041 0.000000
H 0.498992 0.544185 0.443657 0.000000
H 0.498399 0.546303 0.498826 0.000000
H 0.498227 0.545691 0.554411 0.000000
