data_C4_PM
_symmetry_space_group_name_H-M   'P 1'
_cell_length_a 52.503928
_cell_length_b 52.503928
_cell_length_c 52.503928
_cell_angle_alpha 90.000000
_cell_angle_beta 90.000000
_cell_angle_gamma 90.000000
_symmetry_Int_Tables_number 1

loop_
_symmetry_equiv_pos_as_xyz
 'x, y, z'

loop_
_atom_site_label
_atom_site_fract_x
_atom_site_fract_y
_atom_site_fract_z
_atom_site_charge
C 0.407242 0.520410 0.447683 0.000000
N 0.431109 0.525086 0.434065 0.000000
C 0.408113 0.510538 0.474858 0.000000
C 0.408446 0.527879 0.495394 0.000000
C 0.408159 0.518629 0.520638 0.000000
C 0.408628 0.492181 0.525411 0.000000
C 0.408257 0.474929 0.504787 0.000000
C 0.408526 0.484047 0.479490 0.000000
C 0.409021 0.465418 0.457340 0.000000
C 0.382342 0.457507 0.448131 0.000000
C 0.407248 0.446460 0.509840 0.000000
N 0.430972 0.432065 0.512385 0.000000
C 0.409292 0.482353 0.552614 0.000000
C 0.382656 0.478296 0.564142 0.000000
C 0.407415 0.537231 0.542776 0.000000
N 0.431370 0.546242 0.553810 0.000000
C 0.408926 0.556362 0.490391 0.000000
C 0.382219 0.568263 0.488439 0.000000
C 0.592748 0.517984 0.447255 0.000000
N 0.569006 0.522803 0.433476 0.000000
C 0.591793 0.508225 0.474488 0.000000
C 0.591490 0.525604 0.495006 0.000000
C 0.592012 0.516421 0.520278 0.000000
C 0.591821 0.489963 0.525070 0.000000
C 0.592088 0.472690 0.504461 0.000000
C 0.591529 0.481747 0.479151 0.000000
C 0.590808 0.463072 0.457056 0.000000
C 0.617377 0.455125 0.447562 0.000000
C 0.592846 0.444244 0.509576 0.000000
N 0.568846 0.430290 0.512165 0.000000
C 0.591471 0.480155 0.552290 0.000000
C 0.618212 0.476159 0.563596 0.000000
C 0.593029 0.535096 0.542365 0.000000
N 0.569303 0.544485 0.553583 0.000000
C 0.590862 0.554060 0.489876 0.000000
C 0.617511 0.566048 0.487599 0.000000
C 0.500037 0.520712 0.443603 0.000000
C 0.523310 0.524583 0.431014 0.000000
C 0.547469 0.519553 0.444412 0.000000
C 0.523224 0.533233 0.405749 0.000000
C 0.500099 0.538052 0.393066 0.000000
C 0.500055 0.546744 0.367397 0.000000
C 0.499975 0.554209 0.345288 0.000000
Si 0.500197 0.565281 0.312138 0.000000
C 0.470163 0.583720 0.306077 0.000000
C 0.528887 0.586116 0.307463 0.000000
C 0.501808 0.536697 0.290688 0.000000
C 0.476960 0.534118 0.406034 0.000000
C 0.476786 0.525406 0.431274 0.000000
C 0.452589 0.520976 0.444814 0.000000
C 0.500240 0.538198 0.545932 0.000000
C 0.523618 0.546399 0.556013 0.000000
C 0.547728 0.536973 0.545085 0.000000
C 0.523695 0.563742 0.576324 0.000000
C 0.500677 0.572959 0.586523 0.000000
C 0.500851 0.590507 0.607178 0.000000
C 0.500939 0.605543 0.625024 0.000000
Si 0.501107 0.627788 0.651952 0.000000
C 0.498378 0.608837 0.682151 0.000000
C 0.473253 0.649922 0.648441 0.000000
C 0.531863 0.645998 0.651366 0.000000
C 0.477445 0.564594 0.576102 0.000000
C 0.477091 0.547215 0.555842 0.000000
C 0.452721 0.538449 0.544996 0.000000
C 0.500067 0.441552 0.510067 0.000000
C 0.476616 0.428952 0.512564 0.000000
C 0.452539 0.443200 0.510137 0.000000
C 0.476368 0.402708 0.517457 0.000000
C 0.499277 0.389025 0.519967 0.000000
C 0.498788 0.362414 0.525138 0.000000
C 0.498279 0.339535 0.529703 0.000000
Si 0.498010 0.305352 0.536862 0.000000
C 0.468041 0.297733 0.554787 0.000000
C 0.499025 0.287305 0.506024 0.000000
C 0.526802 0.297945 0.556705 0.000000
C 0.522610 0.401989 0.517450 0.000000
C 0.523127 0.428223 0.512489 0.000000
C 0.547519 0.441878 0.509936 0.000000
H 0.396504 0.538379 0.446759 0.000000
H 0.396216 0.507369 0.435534 0.000000
H 0.419829 0.448334 0.462773 0.000000
H 0.419673 0.473766 0.441371 0.000000
H 0.371246 0.474072 0.441749 0.000000
H 0.371372 0.448358 0.463433 0.000000
H 0.383632 0.444045 0.432158 0.000000
H 0.396303 0.436773 0.494823 0.000000
H 0.396311 0.442553 0.527285 0.000000
H 0.419989 0.464376 0.553348 0.000000
H 0.420103 0.495647 0.564634 0.000000
H 0.371654 0.496102 0.564419 0.000000
H 0.371551 0.464449 0.553044 0.000000
H 0.384005 0.471228 0.583798 0.000000
H 0.396458 0.529183 0.558726 0.000000
H 0.396687 0.554449 0.537535 0.000000
H 0.419559 0.560240 0.472783 0.000000
H 0.419734 0.565983 0.505517 0.000000
H 0.371139 0.559637 0.472912 0.000000
H 0.371271 0.565396 0.506050 0.000000
H 0.383432 0.588848 0.484856 0.000000
H 0.603591 0.535896 0.446308 0.000000
H 0.603770 0.504843 0.435219 0.000000
H 0.580054 0.446004 0.462640 0.000000
H 0.579987 0.471394 0.441188 0.000000
H 0.628434 0.471662 0.441045 0.000000
H 0.615895 0.441647 0.431619 0.000000
H 0.628497 0.445972 0.462756 0.000000
H 0.603614 0.434368 0.494552 0.000000
H 0.603732 0.440209 0.527018 0.000000
H 0.580803 0.462168 0.553162 0.000000
H 0.580750 0.493448 0.564395 0.000000
H 0.629233 0.462301 0.552426 0.000000
H 0.617038 0.469129 0.583275 0.000000
H 0.629196 0.493979 0.563740 0.000000
H 0.604040 0.527006 0.558254 0.000000
H 0.603900 0.552175 0.536956 0.000000
H 0.580186 0.563718 0.505072 0.000000
H 0.580042 0.557817 0.472354 0.000000
H 0.628497 0.557361 0.472041 0.000000
H 0.628621 0.563355 0.505136 0.000000
H 0.616180 0.586603 0.483884 0.000000
H 0.500033 0.513914 0.463296 0.000000
H 0.545789 0.512903 0.464349 0.000000
H 0.541352 0.536150 0.396092 0.000000
H 0.453252 0.571776 0.309188 0.000000
H 0.468772 0.600275 0.318816 0.000000
H 0.469640 0.590675 0.286315 0.000000
H 0.546550 0.575576 0.311361 0.000000
H 0.529765 0.593182 0.287752 0.000000
H 0.528319 0.602669 0.320267 0.000000
H 0.502003 0.542593 0.270577 0.000000
H 0.519114 0.525500 0.294338 0.000000
H 0.485299 0.524161 0.293611 0.000000
H 0.458854 0.537718 0.396565 0.000000
H 0.454198 0.513885 0.464603 0.000000
H 0.500056 0.524652 0.530104 0.000000
H 0.545965 0.523256 0.529172 0.000000
H 0.541896 0.570022 0.584050 0.000000
H 0.480641 0.597723 0.682488 0.000000
H 0.514373 0.595475 0.684104 0.000000
H 0.498422 0.621501 0.698851 0.000000
H 0.455205 0.639313 0.648311 0.000000
H 0.474464 0.660754 0.630568 0.000000
H 0.472615 0.663611 0.664296 0.000000
H 0.533855 0.656845 0.633571 0.000000
H 0.532757 0.659533 0.667342 0.000000
H 0.548270 0.633084 0.652892 0.000000
H 0.459409 0.571500 0.583678 0.000000
H 0.454071 0.524839 0.528956 0.000000
H 0.500390 0.462028 0.506239 0.000000
H 0.454291 0.463857 0.506307 0.000000
H 0.458096 0.393071 0.519370 0.000000
H 0.451083 0.302467 0.543460 0.000000
H 0.467220 0.277321 0.559466 0.000000
H 0.467026 0.308526 0.572697 0.000000
H 0.498991 0.266647 0.509559 0.000000
H 0.482441 0.291863 0.494089 0.000000
H 0.516270 0.291986 0.495118 0.000000
H 0.544412 0.302814 0.546482 0.000000
H 0.526573 0.308776 0.574618 0.000000
H 0.527493 0.277546 0.561461 0.000000
H 0.540586 0.391808 0.519359 0.000000
H 0.546198 0.462553 0.506050 0.000000
