data_C5_PM
_symmetry_space_group_name_H-M   'P 1'
_cell_length_a 50.122000
_cell_length_b 50.122000
_cell_length_c 50.122000
_cell_angle_alpha 90.000000
_cell_angle_beta 90.000000
_cell_angle_gamma 90.000000
_symmetry_Int_Tables_number 1

loop_
_symmetry_equiv_pos_as_xyz
 'x, y, z'

loop_
_atom_site_label
_atom_site_fract_x
_atom_site_fract_y
_atom_site_fract_z
_atom_site_charge
C 0.403747 0.458333 0.543031 0.000000
N 0.428964 0.446960 0.552355 0.000000
C 0.404130 0.480616 0.522492 0.000000
C 0.405030 0.507454 0.530971 0.000000
C 0.404166 0.528132 0.511886 0.000000
C 0.403626 0.522091 0.484393 0.000000
C 0.402732 0.495217 0.476034 0.000000
C 0.403536 0.474430 0.495029 0.000000
C 0.403528 0.445501 0.486002 0.000000
C 0.375354 0.433605 0.483338 0.000000
C 0.400758 0.488665 0.446511 0.000000
N 0.425167 0.485095 0.430902 0.000000
C 0.403825 0.544421 0.463907 0.000000
C 0.375736 0.554234 0.456354 0.000000
C 0.404024 0.557012 0.520980 0.000000
N 0.429435 0.570934 0.524470 0.000000
C 0.406842 0.514030 0.560499 0.000000
C 0.379479 0.517078 0.574083 0.000000
C 0.597923 0.455009 0.534863 0.000000
N 0.573219 0.444100 0.545964 0.000000
C 0.596587 0.477706 0.514823 0.000000
C 0.596860 0.504397 0.523817 0.000000
C 0.596916 0.525460 0.505119 0.000000
C 0.595567 0.519935 0.477538 0.000000
C 0.595344 0.493202 0.468681 0.000000
C 0.595262 0.472050 0.487268 0.000000
C 0.593960 0.443342 0.477643 0.000000
C 0.621585 0.430865 0.472786 0.000000
C 0.595059 0.487138 0.438996 0.000000
N 0.569445 0.484083 0.425320 0.000000
C 0.594421 0.542615 0.457470 0.000000
C 0.622051 0.551951 0.447866 0.000000
C 0.598398 0.554165 0.514716 0.000000
N 0.573685 0.568689 0.520238 0.000000
C 0.597357 0.510431 0.553519 0.000000
C 0.625748 0.512780 0.564951 0.000000
C 0.492757 0.455945 0.300578 0.000000
C 0.474076 0.444807 0.318036 0.000000
C 0.475019 0.450715 0.345231 0.000000
C 0.494684 0.467884 0.355546 0.000000
C 0.513403 0.478877 0.337751 0.000000
C 0.512429 0.473014 0.310552 0.000000
C 0.495692 0.474308 0.384422 0.000000
C 0.472168 0.477679 0.399229 0.000000
C 0.472942 0.483878 0.426531 0.000000
C 0.448106 0.487508 0.441871 0.000000
C 0.497760 0.486786 0.439172 0.000000
C 0.521540 0.483536 0.424758 0.000000
C 0.547514 0.486570 0.438176 0.000000
C 0.520253 0.477238 0.397513 0.000000
C 0.504471 0.694383 0.561751 0.000000
C 0.523699 0.676328 0.570823 0.000000
C 0.523137 0.649803 0.562360 0.000000
C 0.503291 0.640739 0.544701 0.000000
C 0.484057 0.659118 0.535757 0.000000
C 0.484660 0.685661 0.544160 0.000000
C 0.502622 0.612523 0.535770 0.000000
C 0.478250 0.599221 0.532210 0.000000
C 0.477328 0.572568 0.523669 0.000000
C 0.451542 0.558890 0.520140 0.000000
C 0.501296 0.558960 0.518749 0.000000
C 0.525916 0.571821 0.522245 0.000000
C 0.550996 0.557452 0.516886 0.000000
C 0.526322 0.598519 0.530692 0.000000
C 0.502854 0.350284 0.639058 0.000000
C 0.521220 0.350107 0.618064 0.000000
C 0.520864 0.370334 0.598929 0.000000
C 0.502108 0.391170 0.600354 0.000000
C 0.483723 0.391073 0.621567 0.000000
C 0.484104 0.370870 0.640722 0.000000
C 0.501723 0.412730 0.580081 0.000000
C 0.525569 0.422722 0.569331 0.000000
C 0.525421 0.443178 0.550202 0.000000
C 0.550555 0.453650 0.539071 0.000000
C 0.500926 0.453861 0.541847 0.000000
C 0.476829 0.444195 0.552314 0.000000
C 0.451240 0.455473 0.543212 0.000000
C 0.477478 0.423652 0.571330 0.000000
H 0.393033 0.464769 0.561076 0.000000
H 0.391898 0.441373 0.535686 0.000000
H 0.414009 0.443753 0.466822 0.000000
H 0.415235 0.433403 0.500052 0.000000
H 0.364523 0.434325 0.502391 0.000000
H 0.376254 0.412682 0.476847 0.000000
H 0.363336 0.444718 0.468744 0.000000
H 0.389025 0.470346 0.443543 0.000000
H 0.389140 0.504069 0.436038 0.000000
H 0.414316 0.537769 0.445839 0.000000
H 0.415619 0.561272 0.471505 0.000000
H 0.363630 0.538043 0.447857 0.000000
H 0.376780 0.570384 0.441562 0.000000
H 0.364911 0.561775 0.473870 0.000000
H 0.392253 0.569349 0.507154 0.000000
H 0.393411 0.558984 0.540096 0.000000
H 0.418402 0.532459 0.563239 0.000000
H 0.418367 0.498473 0.570794 0.000000
H 0.367647 0.498686 0.572477 0.000000
H 0.381779 0.521817 0.595367 0.000000
H 0.367687 0.533079 0.564820 0.000000
H 0.610165 0.460820 0.552139 0.000000
H 0.608724 0.437918 0.526317 0.000000
H 0.582953 0.431199 0.492213 0.000000
H 0.582148 0.442269 0.459204 0.000000
H 0.619728 0.410145 0.465862 0.000000
H 0.633689 0.430843 0.491071 0.000000
H 0.632868 0.442065 0.457682 0.000000
H 0.606306 0.468744 0.434848 0.000000
H 0.606008 0.502589 0.427896 0.000000
H 0.582394 0.536516 0.440178 0.000000
H 0.583661 0.559610 0.466201 0.000000
H 0.633110 0.535647 0.438236 0.000000
H 0.620197 0.568343 0.433425 0.000000
H 0.634359 0.559011 0.464586 0.000000
H 0.609491 0.566468 0.500306 0.000000
H 0.610382 0.555494 0.533058 0.000000
H 0.586393 0.494872 0.564400 0.000000
H 0.586366 0.528995 0.557445 0.000000
H 0.637070 0.528740 0.555055 0.000000
H 0.637071 0.494218 0.562104 0.000000
H 0.625220 0.517161 0.586429 0.000000
H 0.491984 0.451350 0.279318 0.000000
H 0.458759 0.431318 0.310467 0.000000
H 0.460602 0.441602 0.358758 0.000000
H 0.528551 0.492573 0.345283 0.000000
H 0.527009 0.481928 0.297069 0.000000
H 0.452677 0.476049 0.389716 0.000000
H 0.450543 0.492349 0.463279 0.000000
H 0.498569 0.491671 0.460427 0.000000
H 0.546864 0.491105 0.459775 0.000000
H 0.538984 0.474286 0.386866 0.000000
H 0.504923 0.715119 0.568346 0.000000
H 0.539146 0.682891 0.584686 0.000000
H 0.537980 0.635773 0.569888 0.000000
H 0.468773 0.652611 0.521690 0.000000
H 0.469665 0.699629 0.536818 0.000000
H 0.459390 0.609191 0.536437 0.000000
H 0.452499 0.537824 0.513598 0.000000
H 0.500784 0.538172 0.512124 0.000000
H 0.548991 0.536605 0.509892 0.000000
H 0.545671 0.608236 0.532735 0.000000
H 0.503150 0.334486 0.654023 0.000000
H 0.535820 0.334039 0.616481 0.000000
H 0.535009 0.369781 0.582393 0.000000
H 0.469312 0.407292 0.623302 0.000000
H 0.469786 0.371292 0.657112 0.000000
H 0.544838 0.415130 0.575974 0.000000
H 0.548586 0.470168 0.524546 0.000000
H 0.500619 0.469861 0.527007 0.000000
H 0.452506 0.471564 0.528142 0.000000
H 0.458502 0.416105 0.578805 0.000000
