data_C6_PM
_symmetry_space_group_name_H-M   'P 1'
_cell_length_a 55.028332
_cell_length_b 55.028332
_cell_length_c 55.028332
_cell_angle_alpha 90.000000
_cell_angle_beta 90.000000
_cell_angle_gamma 90.000000
_symmetry_Int_Tables_number 1

loop_
_symmetry_equiv_pos_as_xyz
 'x, y, z'

loop_
_atom_site_label
_atom_site_fract_x
_atom_site_fract_y
_atom_site_fract_z
_atom_site_charge
C 0.409899 0.463923 0.536039 0.000000
N 0.432370 0.452700 0.544733 0.000000
C 0.411384 0.484836 0.518119 0.000000
C 0.410998 0.480147 0.492914 0.000000
C 0.411359 0.499737 0.476363 0.000000
C 0.413152 0.523855 0.484901 0.000000
C 0.413607 0.528407 0.510138 0.000000
C 0.413220 0.508905 0.526777 0.000000
C 0.414537 0.513824 0.553896 0.000000
C 0.389435 0.517253 0.565727 0.000000
C 0.414396 0.554400 0.519416 0.000000
N 0.437918 0.566098 0.523522 0.000000
C 0.414435 0.544853 0.467030 0.000000
C 0.389341 0.555022 0.460010 0.000000
C 0.409873 0.494808 0.449259 0.000000
N 0.432298 0.491155 0.435443 0.000000
C 0.410173 0.454141 0.483653 0.000000
C 0.384233 0.444245 0.480339 0.000000
C 0.586790 0.454705 0.532510 0.000000
N 0.563588 0.445700 0.541839 0.000000
C 0.586821 0.475780 0.514725 0.000000
C 0.587840 0.499864 0.523475 0.000000
C 0.588853 0.519387 0.506873 0.000000
C 0.587869 0.514914 0.481633 0.000000
C 0.586794 0.490779 0.473004 0.000000
C 0.585746 0.471189 0.489521 0.000000
C 0.583591 0.445281 0.480199 0.000000
C 0.608289 0.432967 0.475643 0.000000
C 0.586776 0.485822 0.445850 0.000000
N 0.563623 0.484514 0.432821 0.000000
C 0.588233 0.535997 0.463832 0.000000
C 0.614056 0.543359 0.455996 0.000000
C 0.591196 0.545268 0.516251 0.000000
N 0.569244 0.559355 0.521510 0.000000
C 0.588037 0.504735 0.550643 0.000000
C 0.613739 0.505332 0.561648 0.000000
C 0.509628 0.321278 0.643136 0.000000
C 0.494216 0.340014 0.640315 0.000000
C 0.495520 0.359517 0.622192 0.000000
C 0.513362 0.360607 0.603841 0.000000
C 0.513826 0.379581 0.587185 0.000000
C 0.496465 0.398412 0.587937 0.000000
C 0.478610 0.397348 0.606172 0.000000
C 0.478194 0.378332 0.622863 0.000000
C 0.497025 0.418605 0.570160 0.000000
C 0.519193 0.427391 0.561135 0.000000
C 0.520052 0.446525 0.544314 0.000000
C 0.543555 0.455393 0.535066 0.000000
C 0.498257 0.457211 0.536514 0.000000
C 0.475852 0.448783 0.545324 0.000000
C 0.453028 0.459985 0.536905 0.000000
C 0.475456 0.429498 0.562001 0.000000
C 0.510152 0.466271 0.273243 0.000000
C 0.494192 0.459920 0.290612 0.000000
C 0.495338 0.465666 0.316609 0.000000
C 0.513759 0.480066 0.327061 0.000000
C 0.514154 0.484767 0.351862 0.000000
C 0.496100 0.475440 0.367476 0.000000
C 0.477614 0.461204 0.357096 0.000000
C 0.477290 0.456444 0.332236 0.000000
C 0.496747 0.480369 0.393937 0.000000
C 0.519006 0.481648 0.406328 0.000000
C 0.519986 0.486287 0.431380 0.000000
C 0.543514 0.487485 0.444143 0.000000
C 0.498236 0.489653 0.444274 0.000000
C 0.475751 0.488440 0.432300 0.000000
C 0.453016 0.492128 0.445972 0.000000
C 0.475241 0.483838 0.407213 0.000000
C 0.495182 0.718266 0.570391 0.000000
C 0.510114 0.699395 0.574600 0.000000
C 0.508454 0.674817 0.564405 0.000000
C 0.525727 0.657234 0.571290 0.000000
C 0.524969 0.633616 0.562212 0.000000
C 0.506783 0.626464 0.545776 0.000000
C 0.489484 0.644040 0.538792 0.000000
C 0.490303 0.667606 0.547830 0.000000
C 0.505633 0.601256 0.536371 0.000000
C 0.483102 0.589993 0.532396 0.000000
C 0.481556 0.566094 0.523658 0.000000
C 0.457731 0.554571 0.519595 0.000000
C 0.503021 0.553170 0.518933 0.000000
C 0.525787 0.563997 0.522806 0.000000
C 0.548189 0.550199 0.517741 0.000000
C 0.526864 0.587989 0.531428 0.000000
H 0.399852 0.469483 0.552410 0.000000
H 0.398894 0.449020 0.528516 0.000000
H 0.424162 0.498870 0.562982 0.000000
H 0.425721 0.530026 0.557251 0.000000
H 0.377987 0.501058 0.563354 0.000000
H 0.391172 0.520762 0.585311 0.000000
H 0.379566 0.532583 0.557569 0.000000
H 0.404448 0.555931 0.536694 0.000000
H 0.404364 0.566497 0.507053 0.000000
H 0.424070 0.539041 0.450529 0.000000
H 0.425618 0.559513 0.474702 0.000000
H 0.391124 0.570142 0.447086 0.000000
H 0.377901 0.540998 0.451559 0.000000
H 0.379452 0.561718 0.476020 0.000000
H 0.400106 0.509603 0.440007 0.000000
H 0.398577 0.478692 0.445717 0.000000
H 0.419993 0.452901 0.466308 0.000000
H 0.420232 0.442274 0.496182 0.000000
H 0.373866 0.455223 0.467261 0.000000
H 0.384569 0.425417 0.473692 0.000000
H 0.374058 0.444540 0.497524 0.000000
H 0.597809 0.459132 0.548599 0.000000
H 0.596055 0.438855 0.524592 0.000000
H 0.572897 0.445108 0.463333 0.000000
H 0.573038 0.434356 0.493165 0.000000
H 0.619178 0.432076 0.492365 0.000000
H 0.605841 0.414339 0.468872 0.000000
H 0.619097 0.443044 0.462205 0.000000
H 0.596228 0.468649 0.441908 0.000000
H 0.597671 0.499571 0.436253 0.000000
H 0.577471 0.531337 0.447665 0.000000
H 0.578990 0.551764 0.471884 0.000000
H 0.625145 0.548827 0.471683 0.000000
H 0.623579 0.528196 0.447147 0.000000
H 0.613548 0.558658 0.443168 0.000000
H 0.602041 0.545584 0.533045 0.000000
H 0.601860 0.556361 0.503479 0.000000
H 0.578798 0.522030 0.554430 0.000000
H 0.577157 0.490854 0.560014 0.000000
H 0.613017 0.508852 0.581293 0.000000
H 0.623284 0.488013 0.558835 0.000000
H 0.624942 0.519569 0.553235 0.000000
H 0.506764 0.307852 0.657400 0.000000
H 0.525494 0.318641 0.631544 0.000000
H 0.478808 0.341376 0.652833 0.000000
H 0.526972 0.346268 0.602433 0.000000
H 0.527621 0.379628 0.572949 0.000000
H 0.465152 0.411832 0.607573 0.000000
H 0.464227 0.378061 0.636963 0.000000
H 0.536412 0.419803 0.567318 0.000000
H 0.542797 0.470717 0.522063 0.000000
H 0.498716 0.472187 0.523450 0.000000
H 0.454875 0.474917 0.523556 0.000000
H 0.457790 0.422951 0.568112 0.000000
H 0.507312 0.460855 0.254414 0.000000
H 0.526430 0.476930 0.277037 0.000000
H 0.478379 0.449107 0.285223 0.000000
H 0.527925 0.487842 0.315586 0.000000
H 0.528458 0.496280 0.359340 0.000000
H 0.463596 0.453373 0.368723 0.000000
H 0.462852 0.445125 0.324663 0.000000
H 0.536113 0.478589 0.396822 0.000000
H 0.542688 0.491113 0.463910 0.000000
H 0.498817 0.493253 0.463815 0.000000
H 0.454982 0.495718 0.465666 0.000000
H 0.457588 0.483462 0.398232 0.000000
H 0.498291 0.735780 0.579079 0.000000
H 0.479509 0.717027 0.558314 0.000000
H 0.525412 0.702195 0.587014 0.000000
H 0.539942 0.662244 0.584205 0.000000
H 0.538400 0.620377 0.568320 0.000000
H 0.475398 0.639149 0.525725 0.000000
H 0.476680 0.680672 0.541792 0.000000
H 0.466174 0.599449 0.536446 0.000000
H 0.458062 0.535579 0.512974 0.000000
H 0.502007 0.534500 0.512182 0.000000
H 0.545656 0.531562 0.510607 0.000000
H 0.544746 0.596168 0.533838 0.000000
