data_C8_PM
_symmetry_space_group_name_H-M   'P 1'
_cell_length_a 48.200646
_cell_length_b 48.200646
_cell_length_c 48.200646
_cell_angle_alpha 90.000000
_cell_angle_beta 90.000000
_cell_angle_gamma 90.000000
_symmetry_Int_Tables_number 1

loop_
_symmetry_equiv_pos_as_xyz
 'x, y, z'

loop_
_atom_site_label
_atom_site_fract_x
_atom_site_fract_y
_atom_site_fract_z
_atom_site_charge
C 0.399585 0.457025 0.455036 0.000000
N 0.425843 0.445417 0.445143 0.000000
C 0.400057 0.480060 0.476530 0.000000
C 0.399469 0.473448 0.505059 0.000000
C 0.398920 0.494989 0.524909 0.000000
C 0.399865 0.522980 0.516324 0.000000
C 0.400332 0.529428 0.487755 0.000000
C 0.401089 0.508003 0.467814 0.000000
C 0.402937 0.514940 0.437124 0.000000
C 0.374482 0.518229 0.423015 0.000000
C 0.400142 0.559524 0.478450 0.000000
N 0.426542 0.574066 0.474838 0.000000
C 0.400063 0.546103 0.537748 0.000000
C 0.370822 0.556103 0.545756 0.000000
C 0.397005 0.488095 0.555612 0.000000
N 0.422411 0.484408 0.571839 0.000000
C 0.399192 0.443325 0.514334 0.000000
C 0.369793 0.431217 0.517312 0.000000
C 0.601646 0.454679 0.461450 0.000000
N 0.575839 0.443537 0.449910 0.000000
C 0.600347 0.477389 0.483278 0.000000
C 0.599118 0.470270 0.511664 0.000000
C 0.599117 0.491393 0.531942 0.000000
C 0.599178 0.519556 0.523930 0.000000
C 0.600535 0.526528 0.495532 0.000000
C 0.600595 0.505516 0.475133 0.000000
C 0.601347 0.513194 0.444573 0.000000
C 0.630970 0.516086 0.433025 0.000000
C 0.602091 0.556764 0.486849 0.000000
N 0.576428 0.571988 0.481315 0.000000
C 0.598118 0.542250 0.545770 0.000000
C 0.626962 0.551774 0.555601 0.000000
C 0.599032 0.483841 0.562529 0.000000
N 0.572471 0.480813 0.576930 0.000000
C 0.598168 0.439995 0.520348 0.000000
C 0.627084 0.427131 0.524600 0.000000
C 0.523886 0.692991 0.456575 0.000000
N 0.505325 0.703550 0.438613 0.000000
C 0.485825 0.685895 0.429308 0.000000
C 0.484017 0.658071 0.437100 0.000000
C 0.503502 0.647138 0.455805 0.000000
C 0.523896 0.665497 0.465635 0.000000
C 0.502666 0.617665 0.464580 0.000000
C 0.527307 0.603092 0.469811 0.000000
C 0.526837 0.575157 0.478011 0.000000
C 0.552831 0.560039 0.483534 0.000000
C 0.501222 0.561651 0.480897 0.000000
C 0.476319 0.575833 0.475813 0.000000
C 0.449527 0.561527 0.479227 0.000000
C 0.477284 0.603781 0.467711 0.000000
C 0.482683 0.346339 0.374313 0.000000
N 0.502977 0.344068 0.355320 0.000000
C 0.522614 0.363878 0.355809 0.000000
C 0.522967 0.385895 0.374585 0.000000
C 0.501822 0.388053 0.394516 0.000000
C 0.481194 0.367490 0.394009 0.000000
C 0.501385 0.410715 0.415275 0.000000
C 0.526228 0.421153 0.426251 0.000000
C 0.526132 0.442355 0.446197 0.000000
C 0.552335 0.453116 0.457716 0.000000
C 0.500672 0.453182 0.455239 0.000000
C 0.475574 0.443062 0.444531 0.000000
C 0.449010 0.454621 0.454266 0.000000
C 0.476173 0.421893 0.424551 0.000000
C 0.512397 0.440640 0.690101 0.000000
N 0.492832 0.450875 0.707142 0.000000
C 0.474267 0.468196 0.695591 0.000000
C 0.474329 0.475766 0.667645 0.000000
C 0.494804 0.465021 0.649915 0.000000
C 0.514275 0.446953 0.661916 0.000000
C 0.495825 0.472256 0.620031 0.000000
C 0.471313 0.476318 0.604849 0.000000
C 0.472089 0.482938 0.576493 0.000000
C 0.446282 0.486807 0.560468 0.000000
C 0.497911 0.485533 0.563291 0.000000
C 0.522672 0.481595 0.578077 0.000000
C 0.549615 0.484524 0.563935 0.000000
C 0.521380 0.474972 0.606391 0.000000
H 0.388341 0.463780 0.436355 0.000000
H 0.387388 0.439279 0.462607 0.000000
H 0.414988 0.534098 0.434339 0.000000
H 0.414889 0.498796 0.426337 0.000000
H 0.376892 0.523216 0.400900 0.000000
H 0.362269 0.534876 0.432698 0.000000
H 0.362118 0.499139 0.424624 0.000000
H 0.387933 0.572273 0.492924 0.000000
H 0.389052 0.561673 0.458614 0.000000
H 0.412204 0.563734 0.529904 0.000000
H 0.411077 0.539146 0.556459 0.000000
H 0.359464 0.563987 0.527624 0.000000
H 0.358341 0.539159 0.554536 0.000000
H 0.371865 0.572821 0.561222 0.000000
H 0.384879 0.469005 0.558717 0.000000
H 0.384901 0.504040 0.566581 0.000000
H 0.410225 0.441327 0.534190 0.000000
H 0.411133 0.430662 0.499606 0.000000
H 0.358401 0.432077 0.497577 0.000000
H 0.357502 0.442873 0.532578 0.000000
H 0.370590 0.409453 0.524051 0.000000
H 0.613192 0.436662 0.469386 0.000000
H 0.613986 0.461566 0.443521 0.000000
H 0.589983 0.497580 0.432449 0.000000
H 0.590002 0.532692 0.441270 0.000000
H 0.642663 0.496624 0.435156 0.000000
H 0.642723 0.532134 0.444169 0.000000
H 0.630596 0.521699 0.410931 0.000000
H 0.614824 0.558998 0.468034 0.000000
H 0.613330 0.569000 0.502493 0.000000
H 0.586007 0.535100 0.563712 0.000000
H 0.586623 0.560172 0.537600 0.000000
H 0.638735 0.534523 0.564755 0.000000
H 0.639428 0.559857 0.538305 0.000000
H 0.625204 0.568208 0.571303 0.000000
H 0.610931 0.499177 0.574549 0.000000
H 0.610288 0.464290 0.565986 0.000000
H 0.586739 0.427910 0.504752 0.000000
H 0.586044 0.437891 0.539543 0.000000
H 0.625439 0.405244 0.530763 0.000000
H 0.638787 0.438153 0.540774 0.000000
H 0.639542 0.428167 0.505532 0.000000
H 0.539635 0.707430 0.464225 0.000000
H 0.470823 0.694517 0.414625 0.000000
H 0.467873 0.644930 0.428224 0.000000
H 0.539424 0.658589 0.480575 0.000000
H 0.547474 0.612978 0.467168 0.000000
H 0.550647 0.538022 0.489686 0.000000
H 0.500655 0.539874 0.487257 0.000000
H 0.450547 0.539549 0.485795 0.000000
H 0.457651 0.614497 0.464379 0.000000
H 0.466779 0.330159 0.373848 0.000000
H 0.538985 0.362029 0.340205 0.000000
H 0.539400 0.401410 0.373442 0.000000
H 0.464388 0.367607 0.409159 0.000000
H 0.546218 0.412652 0.419964 0.000000
H 0.550405 0.469846 0.473327 0.000000
H 0.500389 0.469673 0.470829 0.000000
H 0.450362 0.471448 0.469833 0.000000
H 0.456440 0.414689 0.416182 0.000000
H 0.527390 0.426466 0.699549 0.000000
H 0.458458 0.476577 0.709547 0.000000
H 0.458803 0.490288 0.659885 0.000000
H 0.530482 0.437431 0.649314 0.000000
H 0.451055 0.473865 0.614603 0.000000
H 0.448892 0.491787 0.538199 0.000000
H 0.498742 0.490680 0.541203 0.000000
H 0.548821 0.490018 0.541656 0.000000
H 0.540877 0.472468 0.617571 0.000000
