data_C9_PM
_symmetry_space_group_name_H-M   'P 1'
_cell_length_a 48.584448
_cell_length_b 48.584448
_cell_length_c 48.584448
_cell_angle_alpha 90.000000
_cell_angle_beta 90.000000
_cell_angle_gamma 90.000000
_symmetry_Int_Tables_number 1

loop_
_symmetry_equiv_pos_as_xyz
 'x, y, z'

loop_
_atom_site_label
_atom_site_fract_x
_atom_site_fract_y
_atom_site_fract_z
_atom_site_charge
C 0.394970 0.524844 0.454111 0.000000
N 0.419441 0.533731 0.438928 0.000000
C 0.398493 0.509620 0.481181 0.000000
C 0.400593 0.480650 0.481310 0.000000
C 0.402646 0.466481 0.506589 0.000000
C 0.403760 0.481200 0.531607 0.000000
C 0.401841 0.510195 0.531322 0.000000
C 0.399715 0.524478 0.506115 0.000000
C 0.398490 0.555709 0.505845 0.000000
C 0.368993 0.567086 0.507674 0.000000
C 0.402044 0.526061 0.558250 0.000000
N 0.428320 0.535098 0.569909 0.000000
C 0.406676 0.465909 0.558725 0.000000
C 0.378894 0.458048 0.571775 0.000000
C 0.403582 0.435244 0.506854 0.000000
N 0.430194 0.421257 0.505327 0.000000
C 0.400309 0.464774 0.454394 0.000000
C 0.371219 0.456381 0.445108 0.000000
C 0.594889 0.534468 0.441063 0.000000
N 0.567877 0.540389 0.429087 0.000000
C 0.596714 0.519362 0.468382 0.000000
C 0.597929 0.490326 0.468767 0.000000
C 0.601002 0.476376 0.494062 0.000000
C 0.601628 0.491243 0.519012 0.000000
C 0.600394 0.520265 0.518504 0.000000
C 0.597454 0.534361 0.493257 0.000000
C 0.595515 0.565572 0.492832 0.000000
C 0.623722 0.579822 0.490624 0.000000
C 0.602137 0.536375 0.545225 0.000000
N 0.576798 0.543036 0.560096 0.000000
C 0.603866 0.476096 0.546264 0.000000
C 0.633760 0.471380 0.555587 0.000000
C 0.603605 0.445223 0.494462 0.000000
N 0.578699 0.428378 0.496523 0.000000
C 0.596209 0.474170 0.442049 0.000000
C 0.624417 0.469003 0.428595 0.000000
C 0.526463 0.304603 0.511198 0.000000
S 0.495767 0.297000 0.495257 0.000000
C 0.487715 0.331155 0.491598 0.000000
C 0.507964 0.348192 0.502201 0.000000
C 0.530304 0.332515 0.513411 0.000000
C 0.506597 0.378530 0.501943 0.000000
C 0.530689 0.394396 0.500321 0.000000
C 0.529594 0.423261 0.499903 0.000000
C 0.554968 0.439743 0.497950 0.000000
C 0.503924 0.436457 0.501062 0.000000
C 0.479563 0.421011 0.502684 0.000000
C 0.452652 0.434980 0.504032 0.000000
C 0.481173 0.392188 0.503239 0.000000
C 0.522009 0.608697 0.663875 0.000000
S 0.493453 0.595220 0.679921 0.000000
C 0.486179 0.574438 0.652354 0.000000
C 0.505083 0.577510 0.631247 0.000000
C 0.525752 0.597376 0.638253 0.000000
C 0.504028 0.562247 0.605023 0.000000
C 0.528302 0.556055 0.590654 0.000000
C 0.527664 0.541495 0.565718 0.000000
C 0.553387 0.535113 0.550936 0.000000
C 0.502233 0.532832 0.555106 0.000000
C 0.477665 0.538802 0.569111 0.000000
C 0.451034 0.529825 0.557638 0.000000
C 0.478811 0.553594 0.593878 0.000000
C 0.468121 0.604140 0.334776 0.000000
S 0.497594 0.592977 0.318616 0.000000
C 0.506647 0.572891 0.346176 0.000000
C 0.487638 0.574483 0.367361 0.000000
C 0.465412 0.592599 0.360419 0.000000
C 0.490029 0.559558 0.393685 0.000000
C 0.466412 0.551247 0.408082 0.000000
C 0.468434 0.537120 0.433195 0.000000
C 0.443547 0.528440 0.448157 0.000000
C 0.494544 0.531126 0.443982 0.000000
C 0.518438 0.539233 0.429924 0.000000
C 0.545798 0.533211 0.441559 0.000000
C 0.515922 0.553448 0.404930 0.000000
H 0.382829 0.512413 0.439583 0.000000
H 0.382430 0.543461 0.457102 0.000000
H 0.408429 0.563553 0.487100 0.000000
H 0.410803 0.563956 0.522934 0.000000
H 0.358698 0.560275 0.526634 0.000000
H 0.356305 0.559924 0.490368 0.000000
H 0.368989 0.589705 0.507459 0.000000
H 0.391861 0.514070 0.574542 0.000000
H 0.389319 0.544714 0.556531 0.000000
H 0.419053 0.447230 0.555630 0.000000
H 0.418537 0.478481 0.573316 0.000000
H 0.366805 0.444735 0.558047 0.000000
H 0.381949 0.447025 0.591290 0.000000
H 0.366281 0.476352 0.575982 0.000000
H 0.393442 0.427196 0.525439 0.000000
H 0.391179 0.426830 0.489877 0.000000
H 0.410098 0.477127 0.438171 0.000000
H 0.413209 0.446294 0.456333 0.000000
H 0.361095 0.443266 0.460513 0.000000
H 0.357970 0.474480 0.442152 0.000000
H 0.371921 0.444974 0.425587 0.000000
H 0.606390 0.523241 0.425107 0.000000
H 0.605540 0.554411 0.442367 0.000000
H 0.582397 0.572153 0.475619 0.000000
H 0.584880 0.572791 0.511445 0.000000
H 0.621430 0.602324 0.490361 0.000000
H 0.637101 0.574357 0.508030 0.000000
H 0.634612 0.573678 0.471770 0.000000
H 0.612735 0.556106 0.541879 0.000000
H 0.615374 0.525589 0.560103 0.000000
H 0.592727 0.487560 0.562270 0.000000
H 0.593223 0.456190 0.544796 0.000000
H 0.644801 0.490965 0.558116 0.000000
H 0.634447 0.460372 0.575336 0.000000
H 0.645317 0.459226 0.540404 0.000000
H 0.614467 0.437972 0.475959 0.000000
H 0.616976 0.438641 0.511512 0.000000
H 0.585955 0.454360 0.445799 0.000000
H 0.582823 0.485079 0.427438 0.000000
H 0.634966 0.488426 0.423777 0.000000
H 0.622185 0.457306 0.409363 0.000000
H 0.638092 0.457321 0.442321 0.000000
H 0.539856 0.288158 0.518263 0.000000
H 0.468800 0.337137 0.481292 0.000000
H 0.548225 0.341699 0.523242 0.000000
H 0.550843 0.384647 0.498888 0.000000
H 0.552209 0.462357 0.497731 0.000000
H 0.502903 0.458944 0.500699 0.000000
H 0.453108 0.457759 0.503889 0.000000
H 0.462027 0.380651 0.505152 0.000000
H 0.534283 0.624375 0.674039 0.000000
H 0.468767 0.560436 0.653187 0.000000
H 0.542399 0.603380 0.624505 0.000000
H 0.548337 0.562107 0.598726 0.000000
H 0.551183 0.523157 0.531670 0.000000
H 0.501533 0.521402 0.535723 0.000000
H 0.451948 0.518365 0.537966 0.000000
H 0.459445 0.558557 0.604060 0.000000
H 0.454559 0.618727 0.324625 0.000000
H 0.525173 0.560403 0.345312 0.000000
H 0.448408 0.597266 0.374249 0.000000
H 0.445910 0.555251 0.399909 0.000000
H 0.446984 0.517201 0.467671 0.000000
H 0.496279 0.520134 0.463553 0.000000
H 0.546040 0.522278 0.461549 0.000000
H 0.534745 0.560127 0.394710 0.000000
