data_CB5_PM
_symmetry_space_group_name_H-M   'P 1'
_cell_length_a 38.739426
_cell_length_b 38.739426
_cell_length_c 38.739426
_cell_angle_alpha 90.000000
_cell_angle_beta 90.000000
_cell_angle_gamma 90.000000
_symmetry_Int_Tables_number 1

loop_
_symmetry_equiv_pos_as_xyz
 'x, y, z'

loop_
_atom_site_label
_atom_site_fract_x
_atom_site_fract_y
_atom_site_fract_z
_atom_site_charge
C 0.498587 0.429376 0.412086 0.000000
H 0.499203 0.417156 0.389951 0.000000
C 0.498688 0.404189 0.442779 0.000000
H 0.497426 0.380240 0.434756 0.000000
C 0.448922 0.438020 0.444875 0.000000
C 0.549346 0.436781 0.444770 0.000000
C 0.498547 0.395908 0.539302 0.000000
H 0.498100 0.370859 0.543026 0.000000
C 0.498809 0.416089 0.573593 0.000000
H 0.497954 0.400401 0.593401 0.000000
C 0.449571 0.430754 0.543003 0.000000
C 0.549646 0.428002 0.543309 0.000000
C 0.500676 0.505207 0.613499 0.000000
H 0.501069 0.501736 0.638611 0.000000
C 0.501355 0.543964 0.604008 0.000000
H 0.501303 0.558564 0.624690 0.000000
C 0.451441 0.519461 0.582622 0.000000
C 0.550261 0.517093 0.580752 0.000000
C 0.501409 0.607437 0.529469 0.000000
H 0.502967 0.630048 0.540707 0.000000
C 0.500656 0.611171 0.489677 0.000000
H 0.501679 0.635389 0.482401 0.000000
C 0.449957 0.583919 0.508532 0.000000
C 0.549868 0.580409 0.506516 0.000000
C 0.500043 0.561658 0.406135 0.000000
H 0.498154 0.579689 0.388444 0.000000
C 0.499438 0.524712 0.389699 0.000000
H 0.499488 0.525728 0.364455 0.000000
C 0.450539 0.531868 0.423572 0.000000
C 0.550487 0.533316 0.421956 0.000000
C 0.453810 0.395840 0.490754 0.000000
H 0.458726 0.371397 0.488551 0.000000
H 0.428931 0.398618 0.490938 0.000000
C 0.543308 0.393560 0.490518 0.000000
H 0.568265 0.395239 0.490840 0.000000
H 0.537392 0.369291 0.489048 0.000000
C 0.455880 0.458575 0.600023 0.000000
H 0.462553 0.448276 0.621809 0.000000
H 0.430835 0.459014 0.599186 0.000000
C 0.544354 0.456173 0.599842 0.000000
H 0.569399 0.456218 0.599377 0.000000
H 0.537102 0.446561 0.621811 0.000000
C 0.457516 0.581454 0.571625 0.000000
H 0.464850 0.599355 0.587552 0.000000
H 0.432492 0.580899 0.571940 0.000000
C 0.545632 0.579988 0.569684 0.000000
H 0.539574 0.598933 0.584922 0.000000
H 0.570605 0.579110 0.568186 0.000000
C 0.456144 0.591373 0.445972 0.000000
H 0.462419 0.611811 0.432974 0.000000
H 0.431191 0.589849 0.446215 0.000000
C 0.544590 0.592115 0.444570 0.000000
H 0.569594 0.591308 0.445880 0.000000
H 0.538191 0.613452 0.433223 0.000000
C 0.455427 0.476071 0.393632 0.000000
H 0.462385 0.470940 0.370135 0.000000
H 0.430399 0.476400 0.394287 0.000000
C 0.543965 0.475666 0.395203 0.000000
H 0.537822 0.469892 0.371623 0.000000
H 0.568948 0.475549 0.396793 0.000000
N 0.467801 0.448786 0.416125 0.000000
N 0.467656 0.413597 0.461289 0.000000
N 0.530264 0.449566 0.417937 0.000000
N 0.530847 0.410518 0.460364 0.000000
N 0.467635 0.408128 0.523342 0.000000
N 0.468589 0.437060 0.572013 0.000000
N 0.530100 0.407090 0.522460 0.000000
N 0.531744 0.434421 0.572308 0.000000
N 0.468699 0.493730 0.598737 0.000000
N 0.470301 0.548586 0.583967 0.000000
N 0.531903 0.491986 0.597230 0.000000
N 0.533176 0.547785 0.584641 0.000000
N 0.468778 0.590807 0.537090 0.000000
N 0.468125 0.595016 0.480133 0.000000
N 0.531996 0.586905 0.536300 0.000000
N 0.530802 0.592144 0.479047 0.000000
N 0.469998 0.561155 0.428586 0.000000
N 0.468054 0.509994 0.402719 0.000000
N 0.532703 0.563376 0.423896 0.000000
N 0.531358 0.510159 0.403032 0.000000
O 0.421058 0.449110 0.453374 0.000000
O 0.578290 0.446243 0.453817 0.000000
O 0.421128 0.443153 0.536071 0.000000
O 0.578942 0.438055 0.536382 0.000000
O 0.422403 0.516721 0.569088 0.000000
O 0.578215 0.513128 0.566914 0.000000
O 0.421154 0.571258 0.507882 0.000000
O 0.577961 0.567258 0.504704 0.000000
O 0.421883 0.526400 0.435843 0.000000
O 0.579411 0.527732 0.433016 0.000000
