data_CB6_PM
_symmetry_space_group_name_H-M   'P 1'
_cell_length_a 40.312000
_cell_length_b 40.312000
_cell_length_c 40.312000
_cell_angle_alpha 90.000000
_cell_angle_beta 90.000000
_cell_angle_gamma 90.000000
_symmetry_Int_Tables_number 1

loop_
_symmetry_equiv_pos_as_xyz
 'x, y, z'

loop_
_atom_site_label
_atom_site_fract_x
_atom_site_fract_y
_atom_site_fract_z
_atom_site_charge
O 0.575893 0.459036 0.418089 0.000000
O 0.576643 0.540297 0.418511 0.000000
O 0.424071 0.459211 0.420669 0.000000
O 0.422799 0.543225 0.418337 0.000000
N 0.470414 0.399846 0.472465 0.000000
N 0.530239 0.398904 0.472862 0.000000
N 0.529343 0.425557 0.418957 0.000000
N 0.468586 0.424016 0.417320 0.000000
N 0.469852 0.470687 0.388817 0.000000
N 0.530195 0.468877 0.385121 0.000000
N 0.529506 0.529099 0.387254 0.000000
N 0.468197 0.530572 0.385890 0.000000
N 0.470842 0.575312 0.418659 0.000000
N 0.531469 0.574963 0.417444 0.000000
N 0.531100 0.599148 0.472465 0.000000
N 0.470687 0.601664 0.472614 0.000000
C 0.499463 0.381601 0.481395 0.000000
H 0.499046 0.358544 0.472217 0.000000
C 0.543375 0.399950 0.439795 0.000000
H 0.539457 0.378175 0.429153 0.000000
H 0.567643 0.403371 0.441109 0.000000
C 0.455808 0.398575 0.439695 0.000000
H 0.431496 0.401268 0.441730 0.000000
H 0.460113 0.376511 0.429922 0.000000
C 0.499786 0.422067 0.399137 0.000000
H 0.500710 0.401595 0.385171 0.000000
C 0.548007 0.452108 0.408414 0.000000
C 0.499717 0.453315 0.377580 0.000000
H 0.498271 0.447591 0.353493 0.000000
C 0.452244 0.452953 0.410225 0.000000
C 0.542299 0.499796 0.371031 0.000000
H 0.566811 0.500026 0.372445 0.000000
H 0.536157 0.500595 0.347291 0.000000
C 0.456802 0.500126 0.372792 0.000000
H 0.462640 0.499219 0.348928 0.000000
H 0.432295 0.499633 0.374429 0.000000
C 0.499749 0.546168 0.376811 0.000000
H 0.500554 0.552081 0.352724 0.000000
C 0.548302 0.547407 0.409481 0.000000
C 0.500698 0.578102 0.399682 0.000000
H 0.500504 0.598766 0.385940 0.000000
C 0.451705 0.549136 0.409382 0.000000
C 0.545132 0.599499 0.439547 0.000000
H 0.541679 0.621731 0.429748 0.000000
H 0.569362 0.595862 0.441283 0.000000
C 0.457484 0.601763 0.439050 0.000000
H 0.433042 0.599422 0.440092 0.000000
H 0.462533 0.623324 0.428483 0.000000
C 0.500957 0.617641 0.480775 0.000000
H 0.501761 0.640713 0.471745 0.000000
O 0.575893 0.459036 0.581911 0.000000
O 0.576643 0.540297 0.581489 0.000000
O 0.424071 0.459211 0.579331 0.000000
O 0.422799 0.543225 0.581663 0.000000
N 0.470414 0.399846 0.527535 0.000000
N 0.530239 0.398904 0.527138 0.000000
N 0.529343 0.425557 0.581043 0.000000
N 0.468586 0.424016 0.582680 0.000000
N 0.469852 0.470687 0.611183 0.000000
N 0.530195 0.468877 0.614879 0.000000
N 0.529506 0.529099 0.612746 0.000000
N 0.468197 0.530572 0.614110 0.000000
N 0.470842 0.575312 0.581341 0.000000
N 0.531469 0.574963 0.582556 0.000000
N 0.531100 0.599148 0.527535 0.000000
N 0.470687 0.601664 0.527386 0.000000
C 0.499463 0.381601 0.518605 0.000000
H 0.499046 0.358544 0.527783 0.000000
C 0.543375 0.399950 0.560205 0.000000
H 0.539457 0.378175 0.570847 0.000000
H 0.567643 0.403371 0.558891 0.000000
C 0.455808 0.398575 0.560305 0.000000
H 0.431496 0.401268 0.558270 0.000000
H 0.460113 0.376511 0.570078 0.000000
C 0.499786 0.422067 0.600863 0.000000
H 0.500710 0.401595 0.614829 0.000000
C 0.548007 0.452108 0.591586 0.000000
C 0.499717 0.453315 0.622420 0.000000
H 0.498271 0.447591 0.646507 0.000000
C 0.452244 0.452953 0.589775 0.000000
C 0.542299 0.499796 0.628969 0.000000
H 0.566811 0.500026 0.627555 0.000000
H 0.536157 0.500595 0.652709 0.000000
C 0.456802 0.500126 0.627208 0.000000
H 0.462640 0.499219 0.651072 0.000000
H 0.432295 0.499633 0.625571 0.000000
C 0.499749 0.546168 0.623189 0.000000
H 0.500554 0.552081 0.647276 0.000000
C 0.548302 0.547407 0.590519 0.000000
C 0.500698 0.578102 0.600318 0.000000
H 0.500504 0.598766 0.614060 0.000000
C 0.451705 0.549136 0.590618 0.000000
C 0.545132 0.599499 0.560453 0.000000
H 0.541679 0.621731 0.570252 0.000000
H 0.569362 0.595862 0.558717 0.000000
C 0.457484 0.601763 0.560950 0.000000
H 0.433042 0.599422 0.559908 0.000000
H 0.462533 0.623324 0.571517 0.000000
C 0.500957 0.617641 0.519225 0.000000
H 0.501761 0.640713 0.528255 0.000000
O 0.575912 0.420151 0.500000 0.000000
O 0.575350 0.576190 0.500000 0.000000
O 0.423110 0.417934 0.500000 0.000000
O 0.423552 0.584916 0.500000 0.000000
C 0.548466 0.407265 0.500000 0.000000
C 0.450984 0.407089 0.500000 0.000000
C 0.548123 0.590129 0.500000 0.000000
C 0.452029 0.594889 0.500000 0.000000
