data_CB7_PM
_symmetry_space_group_name_H-M   'P 1'
_cell_length_a 41.975465
_cell_length_b 41.975465
_cell_length_c 41.975465
_cell_angle_alpha 90.000000
_cell_angle_beta 90.000000
_cell_angle_gamma 90.000000
_symmetry_Int_Tables_number 1

loop_
_symmetry_equiv_pos_as_xyz
 'x, y, z'

loop_
_atom_site_label
_atom_site_fract_x
_atom_site_fract_y
_atom_site_fract_z
_atom_site_charge
O 0.570955 0.586904 0.469369 0.000000
O 0.427351 0.600399 0.455599 0.000000
O 0.571939 0.522943 0.405214 0.000000
O 0.428862 0.537085 0.405547 0.000000
O 0.572497 0.438264 0.407941 0.000000
O 0.429304 0.448150 0.423435 0.000000
O 0.569328 0.408606 0.485287 0.000000
O 0.426358 0.397866 0.494534 0.000000
O 0.574776 0.437726 0.574560 0.000000
O 0.429464 0.430439 0.576077 0.000000
O 0.569329 0.517898 0.601481 0.000000
O 0.428108 0.507476 0.598257 0.000000
O 0.573469 0.589687 0.558358 0.000000
O 0.428896 0.578948 0.542871 0.000000
N 0.530096 0.599161 0.434139 0.000000
N 0.530550 0.621602 0.482532 0.000000
N 0.473302 0.608328 0.427519 0.000000
N 0.472144 0.621809 0.478389 0.000000
N 0.528008 0.508358 0.374789 0.000000
N 0.530989 0.557570 0.393691 0.000000
N 0.470853 0.513205 0.378696 0.000000
N 0.473402 0.564439 0.389652 0.000000
N 0.527009 0.408267 0.410090 0.000000
N 0.527402 0.450859 0.380180 0.000000
N 0.469107 0.411129 0.415238 0.000000
N 0.470063 0.456393 0.387718 0.000000
N 0.528189 0.386153 0.514081 0.000000
N 0.527808 0.382008 0.461530 0.000000
N 0.471143 0.375960 0.517625 0.000000
N 0.470253 0.382826 0.465274 0.000000
N 0.531801 0.437579 0.608945 0.000000
N 0.532731 0.402576 0.569178 0.000000
N 0.473778 0.436062 0.608404 0.000000
N 0.474715 0.399652 0.570124 0.000000
N 0.526141 0.545408 0.621435 0.000000
N 0.527042 0.492448 0.625805 0.000000
N 0.469185 0.540002 0.614699 0.000000
N 0.468904 0.489277 0.630076 0.000000
N 0.528236 0.614664 0.539584 0.000000
N 0.526730 0.591729 0.586725 0.000000
N 0.470381 0.614562 0.535298 0.000000
N 0.469536 0.585272 0.579742 0.000000
C 0.545952 0.601252 0.463090 0.000000
C 0.504603 0.621506 0.432238 0.000000
H 0.509294 0.638794 0.416595 0.000000
C 0.502863 0.634704 0.467080 0.000000
H 0.503049 0.658488 0.467453 0.000000
C 0.455024 0.609036 0.453569 0.000000
C 0.545565 0.585669 0.405869 0.000000
H 0.567988 0.580760 0.411161 0.000000
H 0.545729 0.602034 0.388774 0.000000
C 0.461898 0.596064 0.397228 0.000000
H 0.468589 0.610830 0.380027 0.000000
H 0.438292 0.595683 0.397534 0.000000
C 0.546189 0.528685 0.391953 0.000000
C 0.500163 0.523067 0.363111 0.000000
H 0.498534 0.520981 0.339474 0.000000
C 0.502996 0.558688 0.373495 0.000000
H 0.505945 0.573199 0.354884 0.000000
C 0.455004 0.538372 0.393111 0.000000
C 0.540345 0.478461 0.363075 0.000000
H 0.535136 0.476475 0.340169 0.000000
H 0.563839 0.478473 0.365174 0.000000
C 0.455631 0.483323 0.371796 0.000000
H 0.432976 0.484706 0.378080 0.000000
H 0.456409 0.479643 0.348477 0.000000
C 0.544637 0.432749 0.400848 0.000000
C 0.496444 0.407398 0.394357 0.000000
H 0.494344 0.388162 0.380536 0.000000
C 0.496394 0.437735 0.374785 0.000000
H 0.492997 0.433016 0.351693 0.000000
C 0.453657 0.439512 0.410454 0.000000
C 0.539660 0.382525 0.428978 0.000000
H 0.534201 0.362053 0.418570 0.000000
H 0.563130 0.384285 0.429447 0.000000
C 0.455925 0.385814 0.434365 0.000000
H 0.458572 0.365415 0.422760 0.000000
H 0.432779 0.389616 0.437073 0.000000
C 0.544223 0.393989 0.486711 0.000000
C 0.502333 0.364607 0.507144 0.000000
H 0.506811 0.342620 0.515153 0.000000
C 0.499470 0.365468 0.471052 0.000000
H 0.498589 0.343539 0.461816 0.000000
C 0.453393 0.387019 0.492847 0.000000
C 0.546072 0.383900 0.544099 0.000000
H 0.568269 0.390930 0.540334 0.000000
H 0.546754 0.361298 0.550911 0.000000
C 0.460393 0.375393 0.549910 0.000000
H 0.436952 0.378215 0.550173 0.000000
H 0.465132 0.354196 0.559042 0.000000
C 0.548987 0.427450 0.583278 0.000000
C 0.503270 0.419097 0.613989 0.000000
H 0.503390 0.408543 0.635334 0.000000
C 0.504096 0.394412 0.586708 0.000000
H 0.505297 0.372251 0.595272 0.000000
C 0.456435 0.423204 0.584073 0.000000
C 0.542608 0.462141 0.630056 0.000000
H 0.539215 0.454995 0.652290 0.000000
H 0.565785 0.465104 0.626922 0.000000
C 0.459149 0.456849 0.632173 0.000000
H 0.464487 0.448739 0.653670 0.000000
H 0.435688 0.455789 0.629784 0.000000
C 0.543450 0.518480 0.614679 0.000000
C 0.496150 0.538016 0.636391 0.000000
H 0.492630 0.550664 0.656235 0.000000
C 0.498651 0.502017 0.643149 0.000000
H 0.500674 0.497524 0.666472 0.000000
C 0.452755 0.511672 0.612743 0.000000
C 0.538032 0.577162 0.616115 0.000000
H 0.531661 0.590772 0.634301 0.000000
H 0.561599 0.576484 0.615639 0.000000
C 0.454156 0.569674 0.605781 0.000000
H 0.454125 0.584141 0.624371 0.000000
H 0.431684 0.565410 0.599988 0.000000
C 0.545585 0.597890 0.561012 0.000000
C 0.497731 0.625360 0.552782 0.000000
H 0.497389 0.648951 0.555962 0.000000
C 0.496052 0.607513 0.584407 0.000000
H 0.492160 0.622227 0.602718 0.000000
C 0.453771 0.591908 0.551425 0.000000
C 0.542506 0.630985 0.512447 0.000000
H 0.565764 0.627215 0.512765 0.000000
H 0.539031 0.654159 0.514967 0.000000
C 0.457524 0.631351 0.508209 0.000000
H 0.434282 0.627358 0.507008 0.000000
H 0.460729 0.654475 0.511331 0.000000
