data_CC10_PM
_symmetry_space_group_name_H-M   'P 1'
_cell_length_a 50.211594
_cell_length_b 50.211594
_cell_length_c 50.211594
_cell_angle_alpha 90.000000
_cell_angle_beta 90.000000
_cell_angle_gamma 90.000000
_symmetry_Int_Tables_number 1

loop_
_symmetry_equiv_pos_as_xyz
 'x, y, z'

loop_
_atom_site_label
_atom_site_fract_x
_atom_site_fract_y
_atom_site_fract_z
_atom_site_charge
N 0.548356 0.443907 0.587530 0.000000
N 0.570082 0.418781 0.540758 0.000000
N 0.497046 0.404825 0.436113 0.000000
N 0.442903 0.423868 0.436034 0.000000
F 0.580226 0.380181 0.691365 0.000000
F 0.662121 0.338617 0.571948 0.000000
F 0.504418 0.290931 0.382878 0.000000
F 0.372760 0.358310 0.354524 0.000000
C 0.524893 0.512876 0.583276 0.000000
H 0.544121 0.522649 0.583357 0.000000
C 0.523711 0.484976 0.583398 0.000000
C 0.548704 0.469507 0.584046 0.000000
H 0.567525 0.479928 0.582195 0.000000
C 0.572373 0.427450 0.588858 0.000000
H 0.590288 0.440062 0.585252 0.000000
C 0.571323 0.405943 0.566884 0.000000
H 0.553051 0.393767 0.570092 0.000000
C 0.550947 0.414981 0.523799 0.000000
H 0.534823 0.401415 0.528559 0.000000
C 0.551154 0.428265 0.497590 0.000000
C 0.570255 0.447732 0.491304 0.000000
H 0.585043 0.453461 0.505935 0.000000
C 0.570591 0.459708 0.466072 0.000000
C 0.551441 0.452250 0.447068 0.000000
H 0.551553 0.461334 0.427497 0.000000
C 0.532270 0.432854 0.453056 0.000000
C 0.532157 0.421026 0.478426 0.000000
H 0.517447 0.405976 0.483266 0.000000
C 0.512875 0.424940 0.432439 0.000000
H 0.512400 0.435798 0.413782 0.000000
C 0.477690 0.395673 0.416335 0.000000
H 0.478016 0.409224 0.398749 0.000000
C 0.449434 0.396484 0.428458 0.000000
H 0.449316 0.383502 0.446461 0.000000
C 0.591348 0.479568 0.459823 0.000000
H 0.604620 0.486169 0.475530 0.000000
C 0.574265 0.415039 0.616298 0.000000
C 0.553093 0.399870 0.626664 0.000000
H 0.534998 0.397114 0.615259 0.000000
C 0.555147 0.388199 0.651852 0.000000
H 0.538764 0.376532 0.659657 0.000000
C 0.578273 0.391545 0.666954 0.000000
C 0.599398 0.406607 0.656867 0.000000
H 0.617334 0.409202 0.668551 0.000000
C 0.597435 0.418350 0.631699 0.000000
H 0.614064 0.429828 0.624173 0.000000
C 0.595571 0.387990 0.567896 0.000000
C 0.592821 0.360962 0.574731 0.000000
H 0.573404 0.352716 0.579208 0.000000
C 0.615178 0.344453 0.576101 0.000000
H 0.612888 0.323686 0.581452 0.000000
C 0.640462 0.354694 0.570597 0.000000
C 0.643423 0.381488 0.563703 0.000000
H 0.663002 0.389413 0.559425 0.000000
C 0.621115 0.398083 0.562332 0.000000
H 0.623773 0.418796 0.556921 0.000000
C 0.485110 0.367759 0.407524 0.000000
C 0.488636 0.362031 0.380343 0.000000
H 0.486215 0.377463 0.365466 0.000000
C 0.495102 0.336245 0.372108 0.000000
H 0.497724 0.331996 0.351139 0.000000
C 0.498153 0.315939 0.390914 0.000000
C 0.494719 0.321418 0.417976 0.000000
H 0.497096 0.305699 0.432535 0.000000
C 0.488256 0.347184 0.426291 0.000000
H 0.485719 0.351083 0.447359 0.000000
C 0.428774 0.386542 0.408822 0.000000
C 0.423450 0.400707 0.385228 0.000000
H 0.433837 0.419099 0.380925 0.000000
C 0.404646 0.391185 0.367042 0.000000
H 0.400698 0.402201 0.348928 0.000000
C 0.390982 0.367515 0.372193 0.000000
C 0.396087 0.353322 0.395588 0.000000
H 0.385518 0.334946 0.399572 0.000000
C 0.414862 0.362759 0.413834 0.000000
H 0.418673 0.351405 0.431770 0.000000
N 0.427290 0.486458 0.587620 0.000000
N 0.394654 0.480045 0.540888 0.000000
N 0.419016 0.549932 0.435998 0.000000
N 0.462576 0.587299 0.435768 0.000000
F 0.356234 0.491060 0.691483 0.000000
F 0.279233 0.440516 0.572280 0.000000
F 0.316666 0.600313 0.382658 0.000000
F 0.440827 0.680561 0.353964 0.000000
C 0.498754 0.472280 0.583368 0.000000
H 0.497621 0.450731 0.583521 0.000000
C 0.475190 0.487250 0.583456 0.000000
C 0.449304 0.473352 0.584166 0.000000
H 0.448910 0.451815 0.582386 0.000000
C 0.401033 0.473898 0.589006 0.000000
H 0.403003 0.452059 0.585470 0.000000
C 0.382911 0.485481 0.567004 0.000000
H 0.381510 0.507412 0.570141 0.000000
C 0.400901 0.498472 0.523865 0.000000
H 0.397243 0.519233 0.528559 0.000000
C 0.412309 0.491568 0.497672 0.000000
C 0.419606 0.465268 0.491468 0.000000
H 0.417174 0.449635 0.506152 0.000000
C 0.429784 0.458889 0.466251 0.000000
C 0.432881 0.479159 0.447178 0.000000
H 0.440704 0.474454 0.427617 0.000000
C 0.425683 0.505471 0.453083 0.000000
C 0.415501 0.511568 0.478439 0.000000
H 0.409836 0.531851 0.483216 0.000000
C 0.428522 0.526168 0.432396 0.000000
H 0.438143 0.521072 0.413750 0.000000
C 0.420738 0.571209 0.416148 0.000000
H 0.432306 0.564095 0.398578 0.000000
C 0.435596 0.595316 0.428183 0.000000
H 0.424427 0.601980 0.446171 0.000000
C 0.436607 0.430963 0.460089 0.000000
H 0.435707 0.416231 0.475846 0.000000
C 0.389373 0.478544 0.616437 0.000000
C 0.386823 0.504513 0.626719 0.000000
H 0.393462 0.521512 0.615254 0.000000
C 0.375689 0.508641 0.651900 0.000000
H 0.373793 0.528687 0.659640 0.000000
C 0.367040 0.486992 0.667079 0.000000
C 0.369517 0.461134 0.657076 0.000000
H 0.362811 0.444347 0.668820 0.000000
C 0.380647 0.456885 0.631915 0.000000
H 0.382278 0.436704 0.624454 0.000000
C 0.355258 0.473465 0.568073 0.000000
C 0.333230 0.489384 0.574868 0.000000
H 0.335791 0.510339 0.579275 0.000000
C 0.307751 0.478270 0.576291 0.000000
H 0.290911 0.490655 0.581611 0.000000
C 0.303960 0.451233 0.570879 0.000000
C 0.325695 0.435256 0.564024 0.000000
H 0.322770 0.414315 0.559816 0.000000
C 0.351228 0.446257 0.562601 0.000000
H 0.367821 0.433599 0.557222 0.000000
C 0.392878 0.578710 0.407329 0.000000
C 0.386128 0.578432 0.380153 0.000000
H 0.400706 0.572771 0.365286 0.000000
C 0.360548 0.585704 0.371910 0.000000
H 0.355547 0.585477 0.350945 0.000000
C 0.341453 0.593280 0.390703 0.000000
C 0.347919 0.593582 0.417760 0.000000
H 0.333154 0.599439 0.432309 0.000000
C 0.373474 0.586347 0.426083 0.000000
H 0.378144 0.586652 0.447148 0.000000
C 0.437303 0.618117 0.408470 0.000000
C 0.452214 0.615560 0.384875 0.000000
H 0.462954 0.597355 0.380626 0.000000
C 0.453373 0.636547 0.366620 0.000000
H 0.464866 0.634402 0.348505 0.000000
C 0.439702 0.660241 0.371700 0.000000
C 0.424867 0.662988 0.395096 0.000000
H 0.414249 0.681330 0.399026 0.000000
C 0.423658 0.642076 0.413411 0.000000
H 0.411927 0.644511 0.431346 0.000000
N 0.524684 0.570018 0.587374 0.000000
N 0.535418 0.601350 0.540532 0.000000
N 0.583696 0.544956 0.435798 0.000000
N 0.594279 0.488546 0.435748 0.000000
F 0.564259 0.629619 0.691018 0.000000
F 0.558917 0.721180 0.571514 0.000000
F 0.678472 0.608233 0.382191 0.000000
F 0.685862 0.460481 0.353980 0.000000
C 0.476667 0.515208 0.583333 0.000000
H 0.458573 0.526985 0.583458 0.000000
C 0.501413 0.528138 0.583362 0.000000
C 0.502308 0.557508 0.583975 0.000000
H 0.483878 0.568596 0.582170 0.000000
C 0.526927 0.599060 0.588663 0.000000
H 0.507030 0.608251 0.585109 0.000000
C 0.546018 0.608867 0.566617 0.000000
H 0.565703 0.599126 0.569774 0.000000
C 0.548241 0.586647 0.523550 0.000000
H 0.568061 0.579476 0.528255 0.000000
C 0.536546 0.580155 0.497385 0.000000
C 0.510105 0.586958 0.491174 0.000000
H 0.497786 0.596923 0.505833 0.000000
C 0.499496 0.581248 0.465983 0.000000
C 0.515475 0.568373 0.446942 0.000000
H 0.507488 0.563890 0.427402 0.000000
C 0.541869 0.561463 0.452854 0.000000
C 0.552258 0.567325 0.478185 0.000000
H 0.572653 0.562095 0.482967 0.000000
C 0.558365 0.548611 0.432200 0.000000
H 0.549131 0.542745 0.413579 0.000000
C 0.601233 0.532761 0.415977 0.000000
H 0.589295 0.526228 0.398436 0.000000
C 0.614699 0.507879 0.428086 0.000000
H 0.626073 0.514279 0.446046 0.000000
C 0.471893 0.589288 0.459812 0.000000
H 0.459600 0.597491 0.475549 0.000000
C 0.536801 0.606927 0.616063 0.000000
C 0.560562 0.596172 0.626365 0.000000
H 0.571975 0.581878 0.614940 0.000000
C 0.569737 0.603826 0.651516 0.000000
H 0.588045 0.595481 0.659272 0.000000
C 0.555317 0.622197 0.666643 0.000000
C 0.531677 0.632948 0.656619 0.000000
H 0.520512 0.647194 0.668323 0.000000
C 0.522413 0.625363 0.631488 0.000000
H 0.504129 0.633993 0.624010 0.000000
C 0.549426 0.638841 0.567585 0.000000
C 0.574231 0.649980 0.574328 0.000000
H 0.591103 0.637290 0.578767 0.000000
C 0.577358 0.677609 0.575658 0.000000
H 0.596507 0.686013 0.580939 0.000000
C 0.555825 0.694378 0.570203 0.000000
C 0.531123 0.683534 0.563399 0.000000
H 0.514455 0.696511 0.559159 0.000000
C 0.527894 0.655911 0.562070 0.000000
H 0.508620 0.647852 0.556729 0.000000
C 0.621681 0.553120 0.407079 0.000000
C 0.624783 0.559003 0.379882 0.000000
H 0.612589 0.549168 0.365054 0.000000
C 0.643864 0.577501 0.371565 0.000000
H 0.646166 0.581864 0.350585 0.000000
C 0.659979 0.590313 0.390307 0.000000
C 0.657032 0.584629 0.417384 0.000000
H 0.669494 0.594558 0.431892 0.000000
C 0.637987 0.566157 0.425780 0.000000
H 0.635937 0.562026 0.446860 0.000000
C 0.633575 0.494952 0.408405 0.000000
C 0.623901 0.483220 0.384854 0.000000
H 0.602758 0.483015 0.380619 0.000000
C 0.641478 0.471675 0.366626 0.000000
H 0.633864 0.462724 0.348545 0.000000
C 0.668852 0.471676 0.371690 0.000000
C 0.678670 0.483225 0.395041 0.000000
H 0.699852 0.483275 0.398958 0.000000
C 0.661150 0.494798 0.413329 0.000000
H 0.669141 0.503777 0.431230 0.000000
