data_CC1_PM
_symmetry_space_group_name_H-M   'P 1'
_cell_length_a 41.332105
_cell_length_b 41.332105
_cell_length_c 41.332105
_cell_angle_alpha 90.000000
_cell_angle_beta 90.000000
_cell_angle_gamma 90.000000
_symmetry_Int_Tables_number 1

loop_
_symmetry_equiv_pos_as_xyz
 'x, y, z'

loop_
_atom_site_label
_atom_site_fract_x
_atom_site_fract_y
_atom_site_fract_z
_atom_site_charge
N 0.404675 0.422669 0.433329 0.000000
N 0.382579 0.488764 0.425150 0.000000
N 0.604015 0.442080 0.426934 0.000000
N 0.483665 0.427034 0.618000 0.000000
N 0.473724 0.380131 0.566734 0.000000
N 0.486949 0.603487 0.407094 0.000000
N 0.555656 0.589349 0.408175 0.000000
N 0.587559 0.542219 0.600312 0.000000
N 0.557396 0.390298 0.435307 0.000000
N 0.403873 0.593579 0.538916 0.000000
N 0.625182 0.546350 0.541212 0.000000
N 0.434711 0.574044 0.598847 0.000000
C 0.447410 0.410085 0.471160 0.000000
C 0.417431 0.533657 0.438919 0.000000
C 0.598904 0.491849 0.457148 0.000000
C 0.485709 0.484192 0.605962 0.000000
C 0.455342 0.401776 0.503096 0.000000
C 0.403655 0.538056 0.469699 0.000000
C 0.583292 0.508432 0.431876 0.000000
C 0.519699 0.485278 0.605103 0.000000
C 0.487204 0.393280 0.511400 0.000000
C 0.413399 0.563835 0.489494 0.000000
C 0.575721 0.541374 0.434903 0.000000
C 0.535973 0.514745 0.600846 0.000000
C 0.511231 0.393383 0.487436 0.000000
C 0.437400 0.585230 0.478381 0.000000
C 0.583629 0.557750 0.463638 0.000000
C 0.517943 0.543353 0.597208 0.000000
C 0.503650 0.401647 0.455330 0.000000
C 0.451361 0.581154 0.447737 0.000000
C 0.599183 0.541509 0.489054 0.000000
C 0.484043 0.542665 0.598008 0.000000
C 0.471746 0.410081 0.447409 0.000000
C 0.441324 0.555198 0.428166 0.000000
C 0.606652 0.508511 0.485687 0.000000
C 0.468074 0.512950 0.602286 0.000000
C 0.413598 0.418342 0.463107 0.000000
C 0.407023 0.507000 0.417549 0.000000
C 0.607556 0.457324 0.454159 0.000000
C 0.468220 0.453467 0.610985 0.000000
C 0.371548 0.430649 0.423958 0.000000
C 0.371115 0.462216 0.404844 0.000000
C 0.612395 0.408021 0.422510 0.000000
C 0.467618 0.395996 0.623414 0.000000
C 0.495859 0.383932 0.544798 0.000000
C 0.398052 0.568113 0.521486 0.000000
C 0.559847 0.558214 0.407698 0.000000
C 0.571691 0.515122 0.600632 0.000000
C 0.480850 0.370706 0.600070 0.000000
C 0.389197 0.599180 0.570596 0.000000
C 0.540340 0.607290 0.381869 0.000000
C 0.622866 0.544039 0.600299 0.000000
C 0.528543 0.401340 0.429689 0.000000
C 0.476092 0.604390 0.436548 0.000000
C 0.607687 0.559561 0.518709 0.000000
C 0.465844 0.573224 0.594669 0.000000
C 0.582876 0.389191 0.410844 0.000000
C 0.511207 0.625983 0.394656 0.000000
C 0.634489 0.563093 0.570904 0.000000
C 0.415527 0.603609 0.596052 0.000000
H 0.355442 0.432919 0.445438 0.000000
H 0.361968 0.410910 0.408453 0.000000
H 0.436585 0.401812 0.521416 0.000000
H 0.385163 0.521546 0.478286 0.000000
H 0.577186 0.495804 0.409742 0.000000
H 0.533570 0.463196 0.607884 0.000000
H 0.386133 0.459506 0.382662 0.000000
H 0.345895 0.467459 0.397212 0.000000
H 0.535819 0.386855 0.493834 0.000000
H 0.445137 0.605224 0.493486 0.000000
H 0.577869 0.583186 0.466230 0.000000
H 0.530283 0.566270 0.593896 0.000000
H 0.621609 0.397050 0.445327 0.000000
H 0.631783 0.406234 0.404020 0.000000
H 0.465900 0.416470 0.422664 0.000000
H 0.451972 0.551802 0.404449 0.000000
H 0.618648 0.495720 0.505181 0.000000
H 0.441857 0.512142 0.602935 0.000000
H 0.440923 0.398003 0.620330 0.000000
H 0.396025 0.420288 0.482499 0.000000
H 0.419798 0.503060 0.394982 0.000000
H 0.617496 0.444848 0.474992 0.000000
H 0.442035 0.453291 0.609235 0.000000
H 0.472476 0.388065 0.648604 0.000000
H 0.521074 0.379773 0.550697 0.000000
H 0.381325 0.549824 0.530091 0.000000
H 0.552100 0.544266 0.386868 0.000000
H 0.584656 0.492321 0.601219 0.000000
H 0.468999 0.347115 0.605073 0.000000
H 0.507323 0.367750 0.604051 0.000000
H 0.373067 0.578845 0.577753 0.000000
H 0.374350 0.621543 0.569390 0.000000
H 0.532488 0.590926 0.361972 0.000000
H 0.558142 0.624694 0.371756 0.000000
H 0.634043 0.519545 0.600106 0.000000
H 0.630870 0.556660 0.622631 0.000000
H 0.522246 0.410037 0.405744 0.000000
H 0.484808 0.622673 0.453229 0.000000
H 0.599520 0.584356 0.521298 0.000000
H 0.478930 0.595287 0.589152 0.000000
H 0.574477 0.399322 0.387338 0.000000
H 0.589887 0.363582 0.406815 0.000000
H 0.500379 0.640122 0.374546 0.000000
H 0.519286 0.643313 0.413628 0.000000
H 0.624377 0.588031 0.571797 0.000000
H 0.661280 0.564950 0.571737 0.000000
H 0.403979 0.608666 0.619773 0.000000
H 0.430844 0.624778 0.589560 0.000000
