data_CC2_PM
_symmetry_space_group_name_H-M   'P 1'
_cell_length_a 43.756442
_cell_length_b 43.756442
_cell_length_c 43.756442
_cell_angle_alpha 90.000000
_cell_angle_beta 90.000000
_cell_angle_gamma 90.000000
_symmetry_Int_Tables_number 1

loop_
_symmetry_equiv_pos_as_xyz
 'x, y, z'

loop_
_atom_site_label
_atom_site_fract_x
_atom_site_fract_y
_atom_site_fract_z
_atom_site_charge
N 0.451961 0.611288 0.447002 0.000000
N 0.398040 0.577002 0.463710 0.000000
N 0.572521 0.566816 0.586340 0.000000
N 0.572150 0.604502 0.532112 0.000000
C 0.421940 0.625700 0.449765 0.000000
C 0.396992 0.602373 0.442006 0.000000
C 0.420332 0.653095 0.428154 0.000000
C 0.581049 0.599153 0.587124 0.000000
C 0.594825 0.608382 0.556307 0.000000
C 0.604004 0.604333 0.612957 0.000000
C 0.471477 0.609705 0.469300 0.000000
C 0.501623 0.595205 0.464973 0.000000
C 0.508845 0.579454 0.437915 0.000000
C 0.537813 0.566347 0.433866 0.000000
C 0.559642 0.568858 0.457298 0.000000
C 0.552784 0.584503 0.484424 0.000000
C 0.523640 0.597510 0.488155 0.000000
C 0.576430 0.587314 0.508334 0.000000
C 0.401673 0.548719 0.455577 0.000000
C 0.402235 0.523972 0.478536 0.000000
C 0.402344 0.530415 0.509998 0.000000
C 0.544961 0.557052 0.591262 0.000000
H 0.423843 0.645709 0.404091 0.000000
H 0.418043 0.634121 0.473480 0.000000
H 0.399955 0.594173 0.418101 0.000000
H 0.374208 0.613435 0.443727 0.000000
H 0.397725 0.664523 0.430084 0.000000
H 0.610570 0.628823 0.614113 0.000000
H 0.465986 0.619676 0.491300 0.000000
H 0.492022 0.577520 0.419846 0.000000
H 0.582102 0.558824 0.454433 0.000000
H 0.518072 0.609664 0.509005 0.000000
H 0.597824 0.575123 0.505534 0.000000
H 0.403805 0.542865 0.431578 0.000000
H 0.402281 0.553910 0.517834 0.000000
H 0.526856 0.573120 0.596621 0.000000
H 0.438349 0.669904 0.434244 0.000000
H 0.560705 0.613807 0.591630 0.000000
H 0.615693 0.594576 0.551672 0.000000
H 0.601628 0.632845 0.557065 0.000000
H 0.593575 0.597799 0.635148 0.000000
H 0.624853 0.590293 0.609306 0.000000
N 0.451924 0.398465 0.430157 0.000000
N 0.398004 0.430080 0.451525 0.000000
N 0.572468 0.541342 0.398910 0.000000
N 0.572074 0.475541 0.393384 0.000000
C 0.421880 0.393646 0.416310 0.000000
C 0.396960 0.398617 0.440402 0.000000
C 0.420260 0.361240 0.403390 0.000000
C 0.580975 0.525872 0.370516 0.000000
C 0.594764 0.494553 0.377923 0.000000
C 0.603931 0.545649 0.353124 0.000000
C 0.471427 0.418555 0.420346 0.000000
C 0.501595 0.422055 0.435070 0.000000
C 0.508817 0.406507 0.462230 0.000000
C 0.537805 0.409563 0.475579 0.000000
C 0.559616 0.428595 0.461674 0.000000
C 0.552735 0.444248 0.434575 0.000000
C 0.523583 0.440991 0.421472 0.000000
C 0.576384 0.463558 0.420191 0.000000
C 0.401646 0.437173 0.480083 0.000000
C 0.402232 0.469432 0.490021 0.000000
C 0.402324 0.493468 0.468731 0.000000
C 0.544893 0.550521 0.404928 0.000000
H 0.397670 0.357200 0.392530 0.000000
H 0.417983 0.409975 0.397169 0.000000
H 0.399923 0.381985 0.459458 0.000000
H 0.374155 0.394558 0.429962 0.000000
H 0.438269 0.358096 0.385780 0.000000
H 0.610475 0.534401 0.331318 0.000000
H 0.465927 0.432633 0.400716 0.000000
H 0.491992 0.391820 0.472942 0.000000
H 0.582091 0.431123 0.471785 0.000000
H 0.518006 0.452973 0.400507 0.000000
H 0.597787 0.467208 0.432125 0.000000
H 0.403788 0.419314 0.497141 0.000000
H 0.402240 0.488490 0.444459 0.000000
H 0.526810 0.547122 0.388356 0.000000
H 0.423787 0.344101 0.421815 0.000000
H 0.560617 0.522437 0.355606 0.000000
H 0.615641 0.497463 0.392185 0.000000
H 0.601532 0.482991 0.356367 0.000000
H 0.593501 0.568134 0.347676 0.000000
H 0.624788 0.549503 0.367089 0.000000
N 0.451985 0.490284 0.622899 0.000000
N 0.398050 0.492977 0.584845 0.000000
N 0.572467 0.391763 0.514696 0.000000
N 0.572113 0.419891 0.574441 0.000000
C 0.421939 0.480698 0.633991 0.000000
C 0.397034 0.499094 0.617668 0.000000
C 0.420343 0.485716 0.668531 0.000000
C 0.580989 0.374932 0.542283 0.000000
C 0.594777 0.396995 0.565694 0.000000
C 0.603930 0.349973 0.533847 0.000000
C 0.471486 0.471766 0.610373 0.000000
C 0.501648 0.482743 0.599961 0.000000
C 0.508874 0.514038 0.599855 0.000000
C 0.537852 0.524072 0.590513 0.000000
C 0.559658 0.502501 0.580969 0.000000
C 0.552778 0.471194 0.580954 0.000000
C 0.523637 0.461491 0.590355 0.000000
C 0.576415 0.449092 0.571426 0.000000
C 0.401680 0.514171 0.564411 0.000000
C 0.402246 0.506664 0.531518 0.000000
C 0.402319 0.476186 0.521352 0.000000
C 0.544898 0.392402 0.503757 0.000000
H 0.423889 0.510246 0.674153 0.000000
H 0.418052 0.455957 0.629425 0.000000
H 0.400000 0.523898 0.622533 0.000000
H 0.374228 0.492062 0.626395 0.000000
H 0.397762 0.478349 0.677461 0.000000
H 0.593495 0.334005 0.517098 0.000000
H 0.465995 0.447716 0.608006 0.000000
H 0.492072 0.530653 0.607232 0.000000
H 0.582134 0.510017 0.573711 0.000000
H 0.518072 0.437366 0.590449 0.000000
H 0.597829 0.457604 0.562281 0.000000
H 0.403829 0.537867 0.571362 0.000000
H 0.402260 0.457651 0.537769 0.000000
H 0.526795 0.379753 0.515000 0.000000
H 0.438379 0.472035 0.680047 0.000000
H 0.560633 0.363720 0.552736 0.000000
H 0.615666 0.407889 0.556050 0.000000
H 0.601573 0.384105 0.586507 0.000000
H 0.624790 0.360126 0.523520 0.000000
H 0.610502 0.336722 0.554484 0.000000
