data_CC3_PM
_symmetry_space_group_name_H-M   'P 1'
_cell_length_a 48.259169
_cell_length_b 48.259169
_cell_length_c 48.259169
_cell_angle_alpha 90.000000
_cell_angle_beta 90.000000
_cell_angle_gamma 90.000000
_symmetry_Int_Tables_number 1

loop_
_symmetry_equiv_pos_as_xyz
 'x, y, z'

loop_
_atom_site_label
_atom_site_fract_x
_atom_site_fract_y
_atom_site_fract_z
_atom_site_charge
N 0.382829 0.476310 0.501668 0.000000
C 0.421061 0.482398 0.456269 0.000000
C 0.421331 0.459606 0.474388 0.000000
C 0.402407 0.458172 0.498400 0.000000
C 0.363317 0.475860 0.524881 0.000000
C 0.333867 0.471245 0.513651 0.000000
C 0.312426 0.472131 0.537086 0.000000
H 0.406952 0.499486 0.459906 0.000000
H 0.404756 0.441355 0.513112 0.000000
H 0.368385 0.458573 0.539376 0.000000
H 0.332784 0.450717 0.503254 0.000000
H 0.328802 0.487405 0.498011 0.000000
H 0.315940 0.454446 0.551482 0.000000
H 0.291322 0.469920 0.528174 0.000000
N 0.549207 0.451915 0.597784 0.000000
C 0.543976 0.431096 0.542094 0.000000
C 0.561839 0.452917 0.549363 0.000000
C 0.562610 0.464014 0.577842 0.000000
C 0.549368 0.461775 0.626444 0.000000
C 0.562853 0.439698 0.644998 0.000000
C 0.562124 0.448430 0.675556 0.000000
H 0.530241 0.422223 0.557504 0.000000
H 0.575040 0.482258 0.582092 0.000000
H 0.561640 0.481291 0.628223 0.000000
H 0.584773 0.436657 0.638585 0.000000
H 0.551889 0.419572 0.642513 0.000000
H 0.575147 0.467220 0.678536 0.000000
H 0.570933 0.431563 0.688501 0.000000
N 0.514209 0.618596 0.505515 0.000000
C 0.546690 0.576304 0.478744 0.000000
C 0.520318 0.584451 0.469436 0.000000
C 0.503700 0.605022 0.484802 0.000000
C 0.498871 0.639369 0.521376 0.000000
C 0.512926 0.667721 0.517742 0.000000
C 0.498485 0.689973 0.535226 0.000000
H 0.555108 0.584998 0.497651 0.000000
H 0.482627 0.609100 0.478193 0.000000
H 0.477116 0.640993 0.513732 0.000000
H 0.512075 0.673892 0.495568 0.000000
H 0.535111 0.666339 0.523878 0.000000
H 0.477000 0.693166 0.527513 0.000000
H 0.509826 0.709900 0.533088 0.000000
N 0.392825 0.506625 0.552560 0.000000
C 0.447934 0.507637 0.575391 0.000000
C 0.436675 0.529588 0.559918 0.000000
C 0.408938 0.527483 0.547190 0.000000
C 0.365053 0.503489 0.540780 0.000000
C 0.343604 0.504220 0.564309 0.000000
C 0.314220 0.499483 0.553139 0.000000
H 0.436312 0.488596 0.577974 0.000000
H 0.401908 0.543943 0.533604 0.000000
H 0.360448 0.520791 0.526168 0.000000
H 0.344425 0.524728 0.574769 0.000000
H 0.348568 0.488053 0.579973 0.000000
H 0.308261 0.516955 0.539347 0.000000
H 0.299392 0.498955 0.570748 0.000000
N 0.491995 0.551221 0.392273 0.000000
C 0.509697 0.572999 0.444940 0.000000
C 0.525240 0.553718 0.429605 0.000000
C 0.514565 0.541843 0.403505 0.000000
C 0.480504 0.540494 0.366341 0.000000
C 0.480796 0.563631 0.344450 0.000000
C 0.467526 0.553822 0.317283 0.000000
H 0.489349 0.579255 0.437776 0.000000
H 0.526159 0.525442 0.393451 0.000000
H 0.493280 0.522879 0.358507 0.000000
H 0.502548 0.569976 0.340319 0.000000
H 0.469403 0.582061 0.352342 0.000000
H 0.480289 0.536996 0.308048 0.000000
H 0.466970 0.571326 0.302331 0.000000
N 0.526928 0.384541 0.484537 0.000000
C 0.561620 0.431940 0.495087 0.000000
C 0.543818 0.420450 0.515060 0.000000
C 0.525187 0.397172 0.508220 0.000000
C 0.509222 0.361236 0.476651 0.000000
C 0.527287 0.335345 0.472533 0.000000
C 0.509829 0.310648 0.462748 0.000000
H 0.561676 0.423879 0.474114 0.000000
H 0.510223 0.390353 0.523530 0.000000
H 0.493804 0.356792 0.493316 0.000000
H 0.537500 0.329890 0.492453 0.000000
H 0.543811 0.339652 0.457048 0.000000
H 0.494900 0.304700 0.479278 0.000000
H 0.523622 0.292643 0.458836 0.000000
N 0.617599 0.482686 0.487166 0.000000
C 0.579483 0.464180 0.529193 0.000000
C 0.579574 0.453727 0.502013 0.000000
C 0.598374 0.465011 0.480706 0.000000
C 0.636991 0.494407 0.467039 0.000000
C 0.666587 0.485311 0.474519 0.000000
C 0.687875 0.498361 0.454875 0.000000
H 0.593264 0.481019 0.534793 0.000000
H 0.596283 0.457921 0.459470 0.000000
H 0.632193 0.486767 0.445744 0.000000
H 0.668108 0.462369 0.473105 0.000000
H 0.671432 0.491421 0.496232 0.000000
H 0.684629 0.490347 0.433516 0.000000
H 0.709070 0.492354 0.461552 0.000000
N 0.451205 0.507134 0.391090 0.000000
C 0.457141 0.461082 0.428558 0.000000
C 0.438820 0.483224 0.433261 0.000000
C 0.437683 0.507218 0.414320 0.000000
C 0.450722 0.530167 0.371366 0.000000
C 0.437564 0.520278 0.344103 0.000000
C 0.437948 0.543310 0.322205 0.000000
H 0.470954 0.461511 0.410878 0.000000
H 0.424909 0.524856 0.419859 0.000000
H 0.438063 0.547662 0.379647 0.000000
H 0.415726 0.513999 0.347987 0.000000
H 0.448926 0.501878 0.336095 0.000000
H 0.424566 0.560753 0.329067 0.000000
H 0.429410 0.535150 0.302432 0.000000
N 0.483491 0.604733 0.555247 0.000000
C 0.451967 0.554093 0.556740 0.000000
C 0.478220 0.556903 0.569027 0.000000
C 0.494352 0.582755 0.566302 0.000000
C 0.498338 0.630983 0.552190 0.000000
C 0.483770 0.653314 0.569618 0.000000
C 0.497695 0.681629 0.565875 0.000000
H 0.443288 0.571013 0.544793 0.000000
H 0.515394 0.583337 0.574173 0.000000
H 0.520097 0.628918 0.559714 0.000000
H 0.484619 0.647402 0.591862 0.000000
H 0.461584 0.654795 0.563509 0.000000
H 0.519134 0.680874 0.574256 0.000000
H 0.485971 0.697482 0.577785 0.000000
N 0.606771 0.534380 0.458603 0.000000
C 0.551500 0.545789 0.439134 0.000000
C 0.562439 0.557085 0.463659 0.000000
C 0.590264 0.549332 0.473711 0.000000
C 0.634626 0.526257 0.467331 0.000000
C 0.655945 0.539223 0.447523 0.000000
C 0.685477 0.530050 0.454888 0.000000
H 0.563495 0.530900 0.427324 0.000000
H 0.597051 0.556787 0.493796 0.000000
H 0.638997 0.533870 0.488709 0.000000
H 0.654665 0.562184 0.448879 0.000000
H 0.651221 0.533122 0.425781 0.000000
H 0.691179 0.538226 0.475671 0.000000
H 0.700219 0.538790 0.439534 0.000000
N 0.507601 0.489725 0.618874 0.000000
C 0.489189 0.534823 0.584409 0.000000
C 0.474104 0.510141 0.587773 0.000000
C 0.485145 0.486904 0.604330 0.000000
C 0.519409 0.467563 0.635851 0.000000
C 0.518790 0.476393 0.666451 0.000000
C 0.532385 0.454435 0.684964 0.000000
H 0.509444 0.536985 0.593862 0.000000
H 0.473916 0.467445 0.604595 0.000000
H 0.507020 0.448168 0.633626 0.000000
H 0.496956 0.479367 0.673111 0.000000
H 0.529799 0.496515 0.669033 0.000000
H 0.519995 0.435016 0.684326 0.000000
H 0.532686 0.461966 0.706719 0.000000
N 0.475374 0.392130 0.454703 0.000000
C 0.439725 0.437663 0.469431 0.000000
C 0.457627 0.438214 0.446489 0.000000
C 0.476744 0.415049 0.440683 0.000000
C 0.493567 0.368398 0.449760 0.000000
C 0.476020 0.343620 0.440109 0.000000
C 0.494009 0.317736 0.436123 0.000000
H 0.439926 0.420095 0.483419 0.000000
H 0.491760 0.417210 0.424106 0.000000
H 0.508985 0.373296 0.433240 0.000000
H 0.465809 0.348836 0.420124 0.000000
H 0.459496 0.339193 0.455562 0.000000
H 0.508970 0.321260 0.418954 0.000000
H 0.480569 0.299968 0.430317 0.000000
