data_CC4_PM
_symmetry_space_group_name_H-M   'P 1'
_cell_length_a 45.290634
_cell_length_b 45.290634
_cell_length_c 45.290634
_cell_angle_alpha 90.000000
_cell_angle_beta 90.000000
_cell_angle_gamma 90.000000
_symmetry_Int_Tables_number 1

loop_
_symmetry_equiv_pos_as_xyz
 'x, y, z'

loop_
_atom_site_label
_atom_site_fract_x
_atom_site_fract_y
_atom_site_fract_z
_atom_site_charge
N 0.378540 0.532755 0.532448 0.000000
N 0.409275 0.515897 0.591632 0.000000
N 0.509424 0.414187 0.597091 0.000000
N 0.546369 0.551555 0.609876 0.000000
C 0.403616 0.538523 0.485655 0.000000
C 0.398280 0.509323 0.476614 0.000000
H 0.386840 0.494191 0.491195 0.000000
C 0.394841 0.548931 0.515275 0.000000
H 0.402831 0.570183 0.522885 0.000000
C 0.457517 0.493317 0.595554 0.000000
C 0.472400 0.520337 0.599030 0.000000
H 0.460166 0.540895 0.598292 0.000000
C 0.503139 0.521073 0.602595 0.000000
C 0.519057 0.494439 0.602899 0.000000
H 0.542886 0.494768 0.605119 0.000000
C 0.504514 0.467311 0.599441 0.000000
C 0.473700 0.466923 0.595899 0.000000
H 0.462292 0.446114 0.592716 0.000000
C 0.425450 0.492272 0.589824 0.000000
H 0.415552 0.471460 0.583327 0.000000
C 0.518315 0.549854 0.604245 0.000000
H 0.505744 0.569776 0.599926 0.000000
C 0.522066 0.439902 0.597915 0.000000
H 0.545950 0.441528 0.596747 0.000000
C 0.371207 0.541273 0.562717 0.000000
H 0.383423 0.561545 0.569610 0.000000
C 0.377904 0.516254 0.584005 0.000000
H 0.370766 0.494811 0.574147 0.000000
C 0.358665 0.522789 0.610752 0.000000
H 0.352494 0.502090 0.622411 0.000000
H 0.370505 0.537604 0.626390 0.000000
C 0.331403 0.538665 0.598598 0.000000
H 0.311767 0.523962 0.599626 0.000000
H 0.326841 0.558906 0.611724 0.000000
C 0.338268 0.546707 0.566494 0.000000
H 0.332616 0.570115 0.561752 0.000000
H 0.325422 0.532127 0.551449 0.000000
C 0.562636 0.579437 0.609516 0.000000
H 0.548627 0.597968 0.601310 0.000000
C 0.574357 0.587422 0.639966 0.000000
H 0.557941 0.600652 0.652520 0.000000
H 0.579699 0.567063 0.652679 0.000000
C 0.602678 0.604992 0.634415 0.000000
H 0.599212 0.628722 0.639715 0.000000
H 0.620896 0.596353 0.648433 0.000000
C 0.525868 0.386678 0.593352 0.000000
H 0.549687 0.390962 0.588704 0.000000
C 0.523547 0.366978 0.620463 0.000000
H 0.541409 0.371960 0.636522 0.000000
H 0.501781 0.370084 0.631443 0.000000
N 0.450875 0.594919 0.426126 0.000000
N 0.516543 0.612349 0.436864 0.000000
N 0.582867 0.580576 0.559319 0.000000
N 0.614911 0.508854 0.440030 0.000000
C 0.429300 0.547866 0.439251 0.000000
C 0.419034 0.557665 0.466838 0.000000
H 0.423604 0.580040 0.474025 0.000000
C 0.447237 0.567143 0.420038 0.000000
H 0.458031 0.557563 0.400935 0.000000
C 0.549380 0.587785 0.471077 0.000000
C 0.561088 0.568655 0.449659 0.000000
H 0.552903 0.569399 0.427192 0.000000
C 0.582795 0.547897 0.457221 0.000000
C 0.592947 0.546491 0.486511 0.000000
H 0.609335 0.530173 0.492702 0.000000
C 0.581436 0.565438 0.508136 0.000000
C 0.559713 0.586116 0.500236 0.000000
H 0.550307 0.600510 0.516866 0.000000
C 0.525173 0.608402 0.463921 0.000000
H 0.514067 0.619828 0.481816 0.000000
C 0.593250 0.526830 0.434640 0.000000
H 0.582030 0.526074 0.413495 0.000000
C 0.591141 0.562069 0.539063 0.000000
H 0.604887 0.543312 0.544866 0.000000
C 0.470195 0.614237 0.408939 0.000000
H 0.483021 0.601517 0.392161 0.000000
C 0.491259 0.630845 0.429059 0.000000
H 0.479204 0.638577 0.449128 0.000000
C 0.500500 0.657614 0.411009 0.000000
H 0.506037 0.676571 0.425624 0.000000
H 0.520040 0.652231 0.397109 0.000000
C 0.474100 0.664673 0.391149 0.000000
H 0.462918 0.685194 0.398697 0.000000
H 0.481555 0.667802 0.367965 0.000000
C 0.452935 0.638420 0.393308 0.000000
H 0.445579 0.631014 0.371073 0.000000
H 0.433251 0.644815 0.406562 0.000000
C 0.624488 0.486194 0.419117 0.000000
H 0.609289 0.484805 0.399768 0.000000
C 0.655673 0.491867 0.408020 0.000000
H 0.655414 0.505997 0.387949 0.000000
H 0.669085 0.502868 0.425417 0.000000
C 0.668597 0.461333 0.401404 0.000000
H 0.670525 0.457905 0.377169 0.000000
H 0.690885 0.459216 0.411494 0.000000
C 0.590180 0.576827 0.590532 0.000000
H 0.601091 0.555121 0.594681 0.000000
C 0.610232 0.601333 0.601680 0.000000
H 0.633869 0.595461 0.598555 0.000000
H 0.605522 0.622328 0.589784 0.000000
N 0.411030 0.458200 0.415055 0.000000
N 0.459738 0.409639 0.415783 0.000000
N 0.597255 0.442496 0.435884 0.000000
N 0.523173 0.378559 0.539905 0.000000
C 0.408392 0.499223 0.449139 0.000000
C 0.423816 0.518659 0.430510 0.000000
H 0.432177 0.510946 0.409465 0.000000
C 0.404139 0.467913 0.441123 0.000000
H 0.395736 0.452806 0.457694 0.000000
C 0.507021 0.414289 0.440124 0.000000
C 0.497413 0.400781 0.466359 0.000000
H 0.474630 0.393772 0.468554 0.000000
C 0.516815 0.397031 0.490214 0.000000
C 0.546179 0.406753 0.487608 0.000000
H 0.561213 0.404415 0.506080 0.000000
C 0.556072 0.420258 0.461574 0.000000
C 0.536380 0.423865 0.437849 0.000000
H 0.543659 0.434736 0.417815 0.000000
C 0.486405 0.420159 0.415574 0.000000
H 0.493662 0.434092 0.397507 0.000000
C 0.505524 0.384548 0.518130 0.000000
H 0.481953 0.381077 0.520506 0.000000
C 0.586468 0.431960 0.460245 0.000000
H 0.599569 0.432284 0.480287 0.000000
C 0.409229 0.427016 0.406930 0.000000
H 0.403923 0.412911 0.426451 0.000000
C 0.437955 0.416715 0.393026 0.000000
H 0.446359 0.433996 0.377563 0.000000
C 0.429249 0.389600 0.375222 0.000000
H 0.444056 0.386675 0.355872 0.000000
H 0.430298 0.369461 0.389271 0.000000
C 0.397322 0.395006 0.365587 0.000000
H 0.396301 0.399699 0.341511 0.000000
H 0.383564 0.375230 0.370355 0.000000
C 0.386144 0.421646 0.383126 0.000000
H 0.364142 0.417228 0.393057 0.000000
H 0.384482 0.441144 0.368269 0.000000
C 0.512666 0.368263 0.568645 0.000000
H 0.488063 0.368924 0.570001 0.000000
C 0.523018 0.336983 0.575223 0.000000
H 0.506947 0.320458 0.566796 0.000000
H 0.544936 0.332886 0.564890 0.000000
C 0.525901 0.335325 0.608853 0.000000
H 0.507964 0.321465 0.618330 0.000000
H 0.547557 0.325513 0.615012 0.000000
C 0.626410 0.456272 0.434145 0.000000
H 0.636513 0.458836 0.456499 0.000000
C 0.647401 0.438654 0.414738 0.000000
H 0.659477 0.421794 0.427892 0.000000
H 0.635004 0.427415 0.396728 0.000000
