data_CC5_PM
_symmetry_space_group_name_H-M   'P 1'
_cell_length_a 49.135845
_cell_length_b 49.135845
_cell_length_c 49.135845
_cell_angle_alpha 90.000000
_cell_angle_beta 90.000000
_cell_angle_gamma 90.000000
_symmetry_Int_Tables_number 1

loop_
_symmetry_equiv_pos_as_xyz
 'x, y, z'

loop_
_atom_site_label
_atom_site_fract_x
_atom_site_fract_y
_atom_site_fract_z
_atom_site_charge
N 0.384787 0.374357 0.575533 0.000000
C 0.383441 0.395163 0.559302 0.000000
H 0.374264 0.413990 0.566267 0.000000
C 0.396115 0.394445 0.532085 0.000000
C 0.422757 0.394964 0.481230 0.000000
C 0.410883 0.418803 0.491664 0.000000
H 0.412420 0.437818 0.480631 0.000000
C 0.420724 0.370734 0.496276 0.000000
H 0.429591 0.352103 0.488557 0.000000
C 0.407593 0.370457 0.521527 0.000000
H 0.406693 0.351583 0.532845 0.000000
C 0.374371 0.374960 0.603427 0.000000
H 0.362716 0.394029 0.607546 0.000000
C 0.397600 0.418501 0.516809 0.000000
H 0.388979 0.437245 0.524570 0.000000
C 0.356163 0.350647 0.609378 0.000000
H 0.362716 0.332727 0.597155 0.000000
H 0.334547 0.355354 0.604596 0.000000
C 0.360010 0.344517 0.639670 0.000000
N 0.425315 0.661878 0.554305 0.000000
C 0.448288 0.652704 0.544985 0.000000
H 0.465844 0.651423 0.558277 0.000000
C 0.450510 0.641936 0.517036 0.000000
C 0.454895 0.618480 0.464813 0.000000
C 0.476736 0.617107 0.483260 0.000000
H 0.495250 0.606471 0.477875 0.000000
C 0.431000 0.632089 0.472629 0.000000
H 0.413972 0.633502 0.458695 0.000000
C 0.428777 0.643670 0.498511 0.000000
H 0.409974 0.653725 0.504097 0.000000
C 0.421763 0.670754 0.582483 0.000000
H 0.441558 0.671437 0.593573 0.000000
C 0.474563 0.628836 0.509064 0.000000
H 0.491568 0.627166 0.523020 0.000000
C 0.408462 0.698659 0.584087 0.000000
H 0.394560 0.701803 0.566459 0.000000
H 0.424042 0.715076 0.584211 0.000000
N 0.650291 0.486677 0.609167 0.000000
C 0.635138 0.471101 0.594140 0.000000
H 0.621689 0.456358 0.603581 0.000000
C 0.634308 0.474377 0.564301 0.000000
C 0.629845 0.481975 0.507545 0.000000
C 0.612715 0.463544 0.521139 0.000000
H 0.597159 0.452529 0.510106 0.000000
C 0.649560 0.496262 0.522578 0.000000
H 0.663072 0.510438 0.512498 0.000000
C 0.651749 0.492562 0.550712 0.000000
H 0.666881 0.504100 0.561825 0.000000
C 0.650121 0.485455 0.638922 0.000000
H 0.637978 0.467783 0.646466 0.000000
C 0.615014 0.459729 0.549219 0.000000
H 0.601282 0.445685 0.559261 0.000000
C 0.678787 0.483517 0.650454 0.000000
H 0.693468 0.494178 0.636883 0.000000
H 0.685153 0.461933 0.652735 0.000000
N 0.576331 0.625287 0.385204 0.000000
C 0.559892 0.604636 0.383990 0.000000
H 0.566597 0.585764 0.374748 0.000000
C 0.532763 0.605616 0.396825 0.000000
C 0.482009 0.605595 0.423671 0.000000
C 0.492110 0.581693 0.411641 0.000000
H 0.480828 0.562823 0.413079 0.000000
C 0.497374 0.629632 0.421771 0.000000
H 0.489937 0.648316 0.430766 0.000000
C 0.522562 0.629674 0.408523 0.000000
H 0.534133 0.648395 0.407687 0.000000
C 0.604123 0.624408 0.374613 0.000000
H 0.608031 0.605253 0.363015 0.000000
C 0.517195 0.581748 0.398266 0.000000
H 0.524685 0.562963 0.389506 0.000000
C 0.610152 0.648583 0.356232 0.000000
H 0.598158 0.666654 0.362788 0.000000
H 0.605135 0.643809 0.334688 0.000000
N 0.552796 0.338519 0.423317 0.000000
C 0.543609 0.347326 0.446451 0.000000
H 0.556977 0.348195 0.463999 0.000000
C 0.515728 0.358219 0.448973 0.000000
C 0.463749 0.382093 0.453868 0.000000
C 0.482250 0.382937 0.475667 0.000000
H 0.477010 0.393355 0.494371 0.000000
C 0.471356 0.368761 0.429732 0.000000
H 0.457382 0.367745 0.412732 0.000000
C 0.497140 0.356970 0.427260 0.000000
H 0.502591 0.347178 0.408290 0.000000
C 0.580944 0.329592 0.419473 0.000000
H 0.592096 0.328481 0.439228 0.000000
C 0.507947 0.371014 0.473252 0.000000
H 0.521955 0.372299 0.490220 0.000000
C 0.582386 0.301941 0.405609 0.000000
H 0.564697 0.299155 0.391740 0.000000
H 0.582517 0.285249 0.420858 0.000000
C 0.608696 0.302306 0.388937 0.000000
N 0.609038 0.510904 0.650946 0.000000
C 0.594189 0.526997 0.636140 0.000000
H 0.603804 0.541821 0.622936 0.000000
C 0.564306 0.524097 0.635274 0.000000
C 0.507495 0.517135 0.630609 0.000000
C 0.521311 0.535674 0.613768 0.000000
H 0.510416 0.547013 0.598322 0.000000
C 0.522351 0.502454 0.650137 0.000000
H 0.512099 0.488157 0.663433 0.000000
C 0.550512 0.505830 0.652439 0.000000
H 0.561486 0.493950 0.667401 0.000000
C 0.638780 0.511679 0.650706 0.000000
H 0.646584 0.529415 0.638838 0.000000
C 0.549417 0.539179 0.616155 0.000000
H 0.559616 0.553303 0.602652 0.000000
C 0.650431 0.512953 0.679358 0.000000
H 0.636710 0.502319 0.693925 0.000000
H 0.653121 0.534402 0.686065 0.000000
C 0.677721 0.498007 0.678013 0.000000
N 0.410335 0.398866 0.628274 0.000000
C 0.435137 0.404285 0.620965 0.000000
H 0.447342 0.388808 0.611015 0.000000
C 0.446550 0.431891 0.624071 0.000000
C 0.468167 0.485015 0.626935 0.000000
C 0.482694 0.464073 0.613918 0.000000
H 0.502053 0.468256 0.604274 0.000000
C 0.442898 0.478985 0.638884 0.000000
H 0.431431 0.494754 0.649131 0.000000
C 0.432137 0.452678 0.637434 0.000000
H 0.412453 0.448708 0.646511 0.000000
C 0.397614 0.372349 0.623632 0.000000
H 0.412654 0.357099 0.616087 0.000000
C 0.472028 0.437769 0.612603 0.000000
H 0.483453 0.422113 0.602110 0.000000
C 0.384323 0.361396 0.649339 0.000000
H 0.376983 0.378464 0.662317 0.000000
H 0.398880 0.348812 0.661260 0.000000
N 0.605736 0.372546 0.414910 0.000000
C 0.596588 0.396941 0.410531 0.000000
H 0.580910 0.400259 0.395342 0.000000
C 0.605650 0.420160 0.427252 0.000000
C 0.620147 0.464527 0.460687 0.000000
C 0.599677 0.467319 0.440904 0.000000
H 0.588796 0.486352 0.438693 0.000000
C 0.633595 0.439427 0.463294 0.000000
H 0.649523 0.436868 0.478295 0.000000
C 0.626378 0.417395 0.446777 0.000000
H 0.636847 0.398194 0.449486 0.000000
C 0.595735 0.348680 0.400191 0.000000
H 0.581928 0.354604 0.383142 0.000000
C 0.592585 0.445384 0.424290 0.000000
H 0.576484 0.447958 0.409463 0.000000
C 0.618953 0.331711 0.388775 0.000000
H 0.637231 0.333394 0.402049 0.000000
H 0.624385 0.338415 0.367858 0.000000
N 0.366976 0.532584 0.373449 0.000000
C 0.370970 0.536317 0.399294 0.000000
H 0.359852 0.524189 0.414013 0.000000
C 0.391982 0.555347 0.409166 0.000000
C 0.434109 0.589080 0.428759 0.000000
C 0.419230 0.572497 0.446701 0.000000
H 0.424213 0.571947 0.468168 0.000000
C 0.427372 0.588965 0.400983 0.000000
H 0.438480 0.601707 0.386824 0.000000
C 0.406552 0.572203 0.391217 0.000000
H 0.402075 0.572265 0.369644 0.000000
C 0.347893 0.512348 0.362822 0.000000
H 0.335440 0.503107 0.379438 0.000000
C 0.398316 0.555879 0.437001 0.000000
H 0.387432 0.542974 0.451167 0.000000
C 0.328859 0.524568 0.341676 0.000000
H 0.339149 0.541425 0.330599 0.000000
H 0.310034 0.532551 0.351389 0.000000
C 0.322452 0.501457 0.321810 0.000000
N 0.629037 0.600483 0.410520 0.000000
C 0.621869 0.595223 0.435397 0.000000
H 0.612169 0.610842 0.447620 0.000000
C 0.624730 0.567618 0.446857 0.000000
C 0.626869 0.514436 0.468388 0.000000
C 0.614170 0.535505 0.482945 0.000000
H 0.604435 0.531430 0.502306 0.000000
C 0.638928 0.520347 0.443141 0.000000
H 0.648956 0.504439 0.431625 0.000000
C 0.637821 0.546670 0.432426 0.000000
H 0.646965 0.550552 0.412733 0.000000
C 0.624529 0.626975 0.397710 0.000000
H 0.617226 0.642368 0.412715 0.000000
C 0.613202 0.561853 0.472322 0.000000
H 0.602921 0.577632 0.483773 0.000000
C 0.650235 0.637645 0.384166 0.000000
H 0.663042 0.620439 0.376859 0.000000
H 0.662317 0.650252 0.398565 0.000000
C 0.640529 0.654448 0.359784 0.000000
N 0.416437 0.627824 0.607183 0.000000
C 0.411581 0.603529 0.597965 0.000000
H 0.396324 0.600550 0.582296 0.000000
C 0.427942 0.579992 0.606879 0.000000
C 0.460801 0.535073 0.621009 0.000000
C 0.441008 0.532727 0.600496 0.000000
H 0.438609 0.513855 0.589393 0.000000
C 0.463654 0.559998 0.634737 0.000000
H 0.478658 0.562228 0.650713 0.000000
C 0.447423 0.582304 0.627703 0.000000
H 0.450341 0.601382 0.638345 0.000000
C 0.402150 0.651977 0.597263 0.000000
H 0.384961 0.646443 0.583486 0.000000
C 0.424672 0.554953 0.593595 0.000000
H 0.409873 0.552717 0.577415 0.000000
C 0.391120 0.669097 0.620582 0.000000
H 0.404393 0.667062 0.638844 0.000000
H 0.370082 0.662810 0.626022 0.000000
C 0.391884 0.698551 0.610456 0.000000
N 0.373479 0.469777 0.366678 0.000000
C 0.399275 0.465912 0.370881 0.000000
H 0.414150 0.478041 0.359974 0.000000
C 0.408881 0.446621 0.391781 0.000000
C 0.428040 0.412204 0.433568 0.000000
C 0.446168 0.428823 0.418968 0.000000
H 0.467599 0.429114 0.424014 0.000000
C 0.400264 0.412633 0.426752 0.000000
H 0.385967 0.399883 0.437625 0.000000
C 0.390739 0.429734 0.406106 0.000000
H 0.369170 0.429914 0.401516 0.000000
C 0.363135 0.490172 0.347616 0.000000
H 0.379889 0.499383 0.335362 0.000000
C 0.436673 0.445784 0.398233 0.000000
H 0.451017 0.458689 0.387544 0.000000
C 0.342111 0.478179 0.328318 0.000000
H 0.330790 0.461362 0.338440 0.000000
H 0.351930 0.470206 0.309564 0.000000
N 0.437691 0.395594 0.455874 0.000000
N 0.456652 0.605218 0.438612 0.000000
N 0.626623 0.486882 0.478724 0.000000
N 0.478657 0.512507 0.627193 0.000000
H 0.364024 0.322453 0.642718 0.000000
H 0.341448 0.350188 0.651297 0.000000
H 0.604641 0.295236 0.367830 0.000000
H 0.624154 0.288688 0.398310 0.000000
H 0.679242 0.482994 0.694873 0.000000
H 0.694856 0.512668 0.679768 0.000000
H 0.325348 0.508483 0.300495 0.000000
H 0.301068 0.494539 0.324370 0.000000
H 0.651945 0.648491 0.341171 0.000000
H 0.643835 0.676511 0.363577 0.000000
H 0.401638 0.711877 0.625950 0.000000
H 0.370922 0.706113 0.606530 0.000000
