data_CC9_PM
_symmetry_space_group_name_H-M   'P 1'
_cell_length_a 50.040435
_cell_length_b 50.040435
_cell_length_c 50.040435
_cell_angle_alpha 90.000000
_cell_angle_beta 90.000000
_cell_angle_gamma 90.000000
_symmetry_Int_Tables_number 1

loop_
_symmetry_equiv_pos_as_xyz
 'x, y, z'

loop_
_atom_site_label
_atom_site_fract_x
_atom_site_fract_y
_atom_site_fract_z
_atom_site_charge
N 0.412137 0.525834 0.430305 0.000000
N 0.459093 0.538855 0.399722 0.000000
N 0.565786 0.467636 0.411331 0.000000
N 0.566285 0.422399 0.446892 0.000000
C 0.415877 0.523634 0.487635 0.000000
H 0.415411 0.543346 0.478664 0.000000
C 0.416405 0.500780 0.471312 0.000000
C 0.415928 0.502944 0.441912 0.000000
H 0.418158 0.484973 0.430006 0.000000
C 0.410949 0.529314 0.401286 0.000000
H 0.414936 0.509832 0.391232 0.000000
C 0.432765 0.549258 0.392395 0.000000
H 0.429119 0.568550 0.402912 0.000000
C 0.475759 0.551469 0.415114 0.000000
H 0.470569 0.570927 0.423082 0.000000
C 0.502257 0.540061 0.421293 0.000000
C 0.521070 0.555712 0.434931 0.000000
H 0.515782 0.575816 0.440980 0.000000
C 0.546705 0.545638 0.440486 0.000000
C 0.553293 0.519607 0.432482 0.000000
H 0.573072 0.511868 0.436736 0.000000
C 0.534605 0.503704 0.418806 0.000000
C 0.509124 0.513996 0.413383 0.000000
H 0.494753 0.501742 0.402788 0.000000
C 0.541466 0.476524 0.409601 0.000000
H 0.526003 0.464207 0.400728 0.000000
C 0.574052 0.441123 0.402161 0.000000
H 0.556297 0.429844 0.394836 0.000000
C 0.586275 0.425386 0.425730 0.000000
H 0.603681 0.436976 0.433446 0.000000
C 0.569634 0.430949 0.471144 0.000000
H 0.588134 0.440727 0.476765 0.000000
C 0.383318 0.539054 0.393647 0.000000
C 0.372485 0.562211 0.405392 0.000000
H 0.383631 0.573214 0.420311 0.000000
C 0.347126 0.571265 0.397939 0.000000
H 0.338924 0.589090 0.407042 0.000000
C 0.332356 0.557355 0.378764 0.000000
H 0.312742 0.564435 0.373002 0.000000
C 0.342907 0.534336 0.367026 0.000000
H 0.331455 0.523597 0.352133 0.000000
C 0.368249 0.525170 0.374405 0.000000
H 0.376153 0.507365 0.364984 0.000000
C 0.431980 0.553883 0.362470 0.000000
C 0.424852 0.579079 0.352237 0.000000
H 0.419967 0.595406 0.365568 0.000000
C 0.423758 0.583290 0.324644 0.000000
H 0.418191 0.602702 0.316899 0.000000
C 0.429790 0.562488 0.307040 0.000000
H 0.428906 0.565793 0.285671 0.000000
C 0.436958 0.537402 0.316981 0.000000
H 0.441660 0.521320 0.303320 0.000000
C 0.438075 0.533064 0.344555 0.000000
H 0.443707 0.513524 0.351914 0.000000
C 0.593930 0.444270 0.379520 0.000000
C 0.617247 0.459637 0.382893 0.000000
H 0.621147 0.469707 0.401643 0.000000
C 0.635666 0.462126 0.362033 0.000000
H 0.653545 0.473960 0.364796 0.000000
C 0.631007 0.449361 0.337670 0.000000
H 0.645303 0.451286 0.321551 0.000000
C 0.607909 0.434102 0.334078 0.000000
H 0.604326 0.424210 0.315186 0.000000
C 0.589412 0.431572 0.354868 0.000000
H 0.571680 0.419541 0.351760 0.000000
C 0.595596 0.397937 0.417028 0.000000
C 0.622973 0.391604 0.417140 0.000000
H 0.637628 0.406176 0.423544 0.000000
C 0.631665 0.366407 0.408720 0.000000
H 0.652773 0.361697 0.408786 0.000000
C 0.613164 0.347323 0.400203 0.000000
H 0.619962 0.327850 0.393683 0.000000
C 0.585913 0.353363 0.400101 0.000000
H 0.571605 0.338545 0.393500 0.000000
C 0.577122 0.378519 0.408451 0.000000
H 0.555924 0.382862 0.408271 0.000000
N 0.413656 0.424545 0.509863 0.000000
N 0.461279 0.392733 0.515257 0.000000
N 0.565085 0.441009 0.574300 0.000000
N 0.563613 0.494394 0.595708 0.000000
C 0.416928 0.475395 0.483207 0.000000
H 0.417277 0.457783 0.470618 0.000000
C 0.416688 0.472691 0.511173 0.000000
C 0.416490 0.446120 0.523991 0.000000
H 0.418109 0.444839 0.545569 0.000000
C 0.412795 0.397664 0.521323 0.000000
H 0.416099 0.398770 0.543312 0.000000
C 0.435418 0.380545 0.509148 0.000000
H 0.432444 0.379923 0.487071 0.000000
C 0.478313 0.400167 0.497171 0.000000
H 0.473820 0.397231 0.476166 0.000000
C 0.504313 0.411880 0.504732 0.000000
C 0.523621 0.416358 0.484935 0.000000
H 0.519067 0.411422 0.464344 0.000000
C 0.548814 0.426821 0.491632 0.000000
C 0.554452 0.433058 0.518370 0.000000
H 0.573892 0.441091 0.523539 0.000000
C 0.535259 0.428706 0.538420 0.000000
C 0.510228 0.418230 0.531456 0.000000
H 0.495468 0.414815 0.546925 0.000000
C 0.541135 0.434460 0.566755 0.000000
H 0.525271 0.432549 0.581382 0.000000
C 0.572389 0.446501 0.602099 0.000000
H 0.554264 0.445361 0.614968 0.000000
C 0.583843 0.475084 0.604287 0.000000
H 0.601629 0.476421 0.590929 0.000000
C 0.567127 0.511230 0.576272 0.000000
H 0.585950 0.511679 0.565545 0.000000
C 0.385609 0.385487 0.515874 0.000000
C 0.375593 0.383828 0.489640 0.000000
H 0.387053 0.391520 0.473002 0.000000
C 0.350649 0.372224 0.484759 0.000000
H 0.343077 0.370982 0.464539 0.000000
C 0.335485 0.362184 0.505952 0.000000
H 0.316196 0.353167 0.502114 0.000000
C 0.345224 0.363767 0.532062 0.000000
H 0.333468 0.355974 0.548453 0.000000
C 0.370146 0.375386 0.537051 0.000000
H 0.377425 0.376317 0.557420 0.000000
C 0.435009 0.352307 0.520084 0.000000
C 0.428920 0.330671 0.503182 0.000000
H 0.424575 0.333956 0.482239 0.000000
C 0.428171 0.304652 0.513294 0.000000
H 0.423404 0.288113 0.500193 0.000000
C 0.433518 0.299938 0.540293 0.000000
H 0.432903 0.279774 0.548072 0.000000
C 0.439653 0.321246 0.557224 0.000000
H 0.443827 0.317569 0.578134 0.000000
C 0.440420 0.347318 0.547243 0.000000
H 0.445250 0.363606 0.560628 0.000000
C 0.592523 0.425827 0.611277 0.000000
C 0.616389 0.421663 0.596966 0.000000
H 0.620547 0.432977 0.579018 0.000000
C 0.635027 0.402818 0.605798 0.000000
H 0.653328 0.399725 0.594704 0.000000
C 0.630044 0.387962 0.628909 0.000000
H 0.644511 0.373398 0.635722 0.000000
C 0.606404 0.391888 0.643200 0.000000
H 0.602570 0.380373 0.661110 0.000000
C 0.587685 0.410692 0.634460 0.000000
H 0.569526 0.413567 0.645890 0.000000
C 0.592163 0.481493 0.632685 0.000000
C 0.619276 0.485432 0.638936 0.000000
H 0.634436 0.484051 0.623540 0.000000
C 0.627052 0.490941 0.665190 0.000000
H 0.647963 0.493872 0.669869 0.000000
C 0.607890 0.492627 0.685429 0.000000
H 0.613980 0.496870 0.705735 0.000000
C 0.580892 0.488840 0.679439 0.000000
H 0.566070 0.490165 0.695127 0.000000
C 0.573016 0.483304 0.653221 0.000000
H 0.552002 0.480447 0.648913 0.000000
N 0.410765 0.544068 0.557788 0.000000
N 0.457096 0.565820 0.584052 0.000000
N 0.562282 0.595429 0.515863 0.000000
N 0.562715 0.587261 0.458917 0.000000
C 0.416160 0.495670 0.527193 0.000000
H 0.415917 0.493589 0.548757 0.000000
C 0.415631 0.521232 0.515565 0.000000
C 0.414329 0.545608 0.532149 0.000000
H 0.415755 0.564954 0.522528 0.000000
C 0.408798 0.567395 0.575332 0.000000
H 0.411996 0.585981 0.563462 0.000000
C 0.430828 0.565961 0.596897 0.000000
H 0.427979 0.547091 0.608384 0.000000
C 0.474522 0.546853 0.587186 0.000000
H 0.470060 0.530030 0.600069 0.000000
C 0.500901 0.548218 0.574030 0.000000
C 0.520498 0.529305 0.580636 0.000000
H 0.515895 0.513834 0.595067 0.000000
C 0.546029 0.530499 0.568968 0.000000
C 0.551724 0.550699 0.550382 0.000000
H 0.571423 0.551629 0.541425 0.000000
C 0.532245 0.569762 0.543552 0.000000
C 0.506878 0.568329 0.555361 0.000000
H 0.491896 0.583067 0.550145 0.000000
C 0.538149 0.591563 0.524577 0.000000
H 0.522127 0.604793 0.518456 0.000000
C 0.569607 0.616925 0.497438 0.000000
H 0.551366 0.628210 0.491448 0.000000
C 0.582133 0.604850 0.471935 0.000000
H 0.600045 0.593052 0.478007 0.000000
C 0.567000 0.562119 0.454160 0.000000
H 0.585898 0.553078 0.459701 0.000000
C 0.381202 0.568084 0.587765 0.000000
C 0.371304 0.545937 0.602016 0.000000
H 0.383161 0.527962 0.604029 0.000000
C 0.345967 0.546892 0.613764 0.000000
H 0.338487 0.529802 0.624710 0.000000
C 0.330290 0.569863 0.611402 0.000000
H 0.310694 0.570584 0.620539 0.000000
C 0.339908 0.591930 0.597261 0.000000
H 0.327753 0.609741 0.595452 0.000000
C 0.365224 0.591079 0.585453 0.000000
H 0.372397 0.608434 0.574694 0.000000
C 0.429265 0.589515 0.615864 0.000000
C 0.422464 0.585534 0.642844 0.000000
H 0.418387 0.565658 0.650342 0.000000
C 0.420651 0.607275 0.660314 0.000000
H 0.415341 0.604062 0.681022 0.000000
C 0.425634 0.633135 0.651046 0.000000
H 0.424196 0.649940 0.664586 0.000000
C 0.432470 0.637319 0.624296 0.000000
H 0.436360 0.657356 0.617163 0.000000
C 0.434302 0.615655 0.606759 0.000000
H 0.439663 0.619266 0.586100 0.000000
C 0.588873 0.635709 0.511333 0.000000
C 0.612655 0.625992 0.522804 0.000000
H 0.617363 0.604888 0.522119 0.000000
C 0.630499 0.643516 0.535275 0.000000
H 0.648741 0.635923 0.544028 0.000000
C 0.624797 0.670823 0.536426 0.000000
H 0.638650 0.684352 0.546045 0.000000
C 0.601230 0.680664 0.525164 0.000000
H 0.596839 0.701822 0.526056 0.000000
C 0.583305 0.663228 0.512687 0.000000
H 0.565193 0.671245 0.503947 0.000000
C 0.590504 0.626438 0.452440 0.000000
C 0.617706 0.630564 0.446728 0.000000
H 0.632904 0.618313 0.456052 0.000000
C 0.625513 0.650744 0.429048 0.000000
H 0.646488 0.653862 0.424808 0.000000
C 0.606296 0.666963 0.416920 0.000000
H 0.612408 0.682584 0.403264 0.000000
C 0.579212 0.662995 0.422381 0.000000
H 0.564349 0.675533 0.412946 0.000000
C 0.571304 0.642847 0.440041 0.000000
H 0.550224 0.640044 0.444028 0.000000
