data_CD1_PM
_symmetry_space_group_name_H-M   'P 1'
_cell_length_a 41.187876
_cell_length_b 41.187876
_cell_length_c 41.187876
_cell_angle_alpha 90.000000
_cell_angle_beta 90.000000
_cell_angle_gamma 90.000000
_symmetry_Int_Tables_number 1

loop_
_symmetry_equiv_pos_as_xyz
 'x, y, z'

loop_
_atom_site_label
_atom_site_fract_x
_atom_site_fract_y
_atom_site_fract_z
_atom_site_charge
C 0.494850 0.392536 0.562497 0.000000
C 0.465188 0.380832 0.543533 0.000000
C 0.465474 0.395937 0.509983 0.000000
C 0.497476 0.389442 0.493223 0.000000
C 0.525923 0.401191 0.514135 0.000000
C 0.558865 0.393061 0.499610 0.000000
O 0.436737 0.390564 0.561252 0.000000
O 0.439291 0.381886 0.491563 0.000000
O 0.496653 0.408267 0.463749 0.000000
O 0.523774 0.385362 0.545295 0.000000
O 0.562069 0.359338 0.492372 0.000000
C 0.503667 0.392970 0.433740 0.000000
C 0.474732 0.398115 0.411266 0.000000
C 0.469515 0.433905 0.405991 0.000000
C 0.500680 0.448420 0.394157 0.000000
C 0.529686 0.441269 0.415504 0.000000
C 0.561632 0.452376 0.401033 0.000000
O 0.445826 0.384610 0.425467 0.000000
O 0.445109 0.439951 0.381831 0.000000
O 0.495182 0.483702 0.395190 0.000000
O 0.531866 0.406565 0.419789 0.000000
O 0.564149 0.442948 0.367669 0.000000
C 0.501573 0.502804 0.367256 0.000000
C 0.471729 0.523609 0.361625 0.000000
C 0.465741 0.544449 0.391253 0.000000
C 0.495988 0.563699 0.400209 0.000000
C 0.526869 0.542727 0.400826 0.000000
C 0.557919 0.562690 0.401876 0.000000
O 0.443938 0.503493 0.354741 0.000000
O 0.440292 0.567335 0.385667 0.000000
O 0.490050 0.576284 0.432086 0.000000
O 0.528754 0.523080 0.371890 0.000000
O 0.557965 0.588957 0.379363 0.000000
C 0.498267 0.609121 0.438314 0.000000
C 0.470134 0.623675 0.457209 0.000000
C 0.467764 0.608931 0.491077 0.000000
C 0.500272 0.611197 0.508128 0.000000
C 0.526476 0.594947 0.487464 0.000000
C 0.560131 0.598481 0.501717 0.000000
O 0.440490 0.619208 0.439511 0.000000
O 0.443897 0.626672 0.509101 0.000000
O 0.496312 0.593696 0.538290 0.000000
O 0.527543 0.611508 0.456556 0.000000
O 0.582460 0.579975 0.481400 0.000000
C 0.506688 0.609042 0.567532 0.000000
C 0.479310 0.606805 0.592055 0.000000
C 0.471997 0.571661 0.600758 0.000000
C 0.502862 0.553105 0.609326 0.000000
C 0.530636 0.558874 0.585276 0.000000
C 0.563262 0.546246 0.596149 0.000000
O 0.451233 0.622211 0.578667 0.000000
O 0.450017 0.572065 0.627694 0.000000
O 0.494364 0.519315 0.608430 0.000000
O 0.534742 0.593441 0.580161 0.000000
O 0.570685 0.555486 0.629215 0.000000
C 0.502785 0.498667 0.634169 0.000000
C 0.475253 0.475581 0.641180 0.000000
C 0.467136 0.457101 0.609672 0.000000
C 0.497193 0.439121 0.599367 0.000000
C 0.527327 0.460426 0.597431 0.000000
C 0.558457 0.440493 0.594526 0.000000
O 0.447911 0.492203 0.654136 0.000000
O 0.441409 0.434587 0.615978 0.000000
O 0.491311 0.426189 0.567637 0.000000
O 0.530655 0.479835 0.626926 0.000000
O 0.558962 0.412527 0.614918 0.000000
H 0.495522 0.379709 0.586995 0.000000
H 0.465820 0.353250 0.541354 0.000000
H 0.461592 0.423266 0.512149 0.000000
H 0.500146 0.362500 0.487457 0.000000
H 0.523990 0.428568 0.517640 0.000000
H 0.562290 0.407630 0.476309 0.000000
H 0.578808 0.399906 0.517528 0.000000
H 0.417824 0.371478 0.559074 0.000000
H 0.426217 0.401349 0.478272 0.000000
H 0.543621 0.352275 0.474050 0.000000
H 0.507525 0.365883 0.437837 0.000000
H 0.479641 0.385826 0.386941 0.000000
H 0.462143 0.445871 0.429845 0.000000
H 0.505714 0.440324 0.368182 0.000000
H 0.526141 0.453337 0.440149 0.000000
H 0.563357 0.479932 0.402853 0.000000
H 0.582574 0.440988 0.415082 0.000000
H 0.424169 0.396732 0.414978 0.000000
H 0.433600 0.416632 0.374670 0.000000
H 0.560295 0.464480 0.351941 0.000000
H 0.505773 0.486339 0.345419 0.000000
H 0.476366 0.540128 0.339906 0.000000
H 0.458778 0.528171 0.412516 0.000000
H 0.499298 0.584628 0.382401 0.000000
H 0.526071 0.526140 0.422963 0.000000
H 0.561163 0.572832 0.427445 0.000000
H 0.579526 0.546471 0.395883 0.000000
H 0.425695 0.517766 0.340938 0.000000
H 0.419186 0.554750 0.374607 0.000000
H 0.539911 0.584171 0.359929 0.000000
H 0.501214 0.622602 0.414310 0.000000
H 0.474630 0.650861 0.459853 0.000000
H 0.460103 0.582413 0.489131 0.000000
H 0.506830 0.637623 0.513063 0.000000
H 0.520457 0.568182 0.483751 0.000000
H 0.567511 0.625158 0.501826 0.000000
H 0.560265 0.588627 0.527582 0.000000
H 0.419323 0.620740 0.499750 0.000000
H 0.568868 0.568855 0.460936 0.000000
H 0.512412 0.635640 0.562470 0.000000
H 0.486792 0.620305 0.615014 0.000000
H 0.459720 0.559359 0.579217 0.000000
H 0.511072 0.559973 0.634855 0.000000
H 0.524112 0.547022 0.561135 0.000000
H 0.563356 0.518632 0.594244 0.000000
H 0.583038 0.556468 0.579689 0.000000
H 0.433968 0.603420 0.569984 0.000000
H 0.424853 0.568281 0.618812 0.000000
H 0.569367 0.582290 0.631556 0.000000
H 0.507786 0.513932 0.656714 0.000000
H 0.483943 0.457224 0.659992 0.000000
H 0.459497 0.474933 0.589921 0.000000
H 0.501840 0.418285 0.616974 0.000000
H 0.525209 0.477309 0.575598 0.000000
H 0.561389 0.432358 0.568233 0.000000
H 0.580175 0.456165 0.601476 0.000000
H 0.425334 0.479369 0.646904 0.000000
H 0.419274 0.442267 0.602681 0.000000
H 0.540694 0.394724 0.606202 0.000000
H 0.431705 0.643036 0.430506 0.000000
