data_CD2_PM
_symmetry_space_group_name_H-M   'P 1'
_cell_length_a 42.983576
_cell_length_b 42.983576
_cell_length_c 42.983576
_cell_angle_alpha 90.000000
_cell_angle_beta 90.000000
_cell_angle_gamma 90.000000
_symmetry_Int_Tables_number 1

loop_
_symmetry_equiv_pos_as_xyz
 'x, y, z'

loop_
_atom_site_label
_atom_site_fract_x
_atom_site_fract_y
_atom_site_fract_z
_atom_site_charge
C 0.502511 0.540693 0.365476 0.000000
H 0.505733 0.561988 0.349995 0.000000
C 0.475800 0.522885 0.354626 0.000000
O 0.448245 0.541210 0.355956 0.000000
C 0.471777 0.492702 0.374262 0.000000
H 0.467543 0.499290 0.399593 0.000000
O 0.445545 0.476248 0.362814 0.000000
C 0.500764 0.475263 0.371972 0.000000
H 0.503899 0.466137 0.347267 0.000000
C 0.528390 0.493705 0.381272 0.000000
H 0.526449 0.499341 0.407117 0.000000
C 0.559313 0.477993 0.375549 0.000000
H 0.559012 0.454036 0.386874 0.000000
H 0.578726 0.492447 0.386434 0.000000
O 0.565769 0.474697 0.344383 0.000000
O 0.529521 0.522312 0.364292 0.000000
O 0.498494 0.449516 0.393497 0.000000
C 0.501572 0.418907 0.382292 0.000000
H 0.503970 0.419467 0.355882 0.000000
C 0.473219 0.400978 0.390783 0.000000
H 0.475700 0.375989 0.382302 0.000000
O 0.445807 0.414545 0.377511 0.000000
C 0.469909 0.401192 0.426124 0.000000
H 0.468236 0.426175 0.434897 0.000000
O 0.442788 0.384070 0.435347 0.000000
C 0.498806 0.385920 0.439031 0.000000
H 0.499355 0.360451 0.431656 0.000000
C 0.527645 0.401665 0.428262 0.000000
H 0.528707 0.425862 0.439069 0.000000
C 0.556338 0.384657 0.436345 0.000000
H 0.559191 0.384280 0.462707 0.000000
H 0.577222 0.396867 0.425421 0.000000
O 0.554874 0.353137 0.424851 0.000000
O 0.527955 0.404698 0.395139 0.000000
O 0.496162 0.387813 0.471937 0.000000
C 0.502822 0.361272 0.490411 0.000000
H 0.506580 0.340610 0.474212 0.000000
C 0.474574 0.354902 0.509858 0.000000
H 0.479142 0.332720 0.523620 0.000000
O 0.448173 0.349645 0.490956 0.000000
C 0.469942 0.380425 0.532495 0.000000
H 0.464260 0.402880 0.519580 0.000000
O 0.445239 0.372994 0.553285 0.000000
C 0.500163 0.384740 0.551590 0.000000
H 0.504403 0.362775 0.565843 0.000000
C 0.526691 0.389403 0.530367 0.000000
H 0.523288 0.412263 0.517388 0.000000
C 0.557286 0.390413 0.546851 0.000000
H 0.559142 0.412933 0.560725 0.000000
H 0.576933 0.389298 0.529076 0.000000
O 0.559502 0.364295 0.567629 0.000000
O 0.529355 0.365044 0.508325 0.000000
O 0.496464 0.409483 0.571689 0.000000
C 0.501896 0.404329 0.602819 0.000000
H 0.504712 0.378251 0.606677 0.000000
C 0.473014 0.415581 0.621270 0.000000
H 0.476432 0.410677 0.647105 0.000000
O 0.446104 0.400591 0.610673 0.000000
C 0.470154 0.450527 0.615968 0.000000
H 0.466098 0.455249 0.590187 0.000000
O 0.444827 0.462873 0.633633 0.000000
C 0.499782 0.465889 0.626057 0.000000
H 0.502714 0.463542 0.652328 0.000000
C 0.527560 0.453514 0.609957 0.000000
H 0.526457 0.459613 0.584184 0.000000
O 0.528755 0.419379 0.613778 0.000000
C 0.557599 0.464195 0.623224 0.000000
H 0.559996 0.490285 0.619155 0.000000
H 0.577575 0.451693 0.611052 0.000000
O 0.560053 0.458083 0.655830 0.000000
O 0.496714 0.498257 0.617741 0.000000
C 0.502373 0.520594 0.639783 0.000000
H 0.505219 0.508910 0.663417 0.000000
C 0.474404 0.541808 0.640794 0.000000
H 0.479178 0.560172 0.659310 0.000000
O 0.446967 0.526019 0.649604 0.000000
C 0.471430 0.558173 0.610890 0.000000
H 0.466865 0.540533 0.591624 0.000000
O 0.445407 0.579778 0.612770 0.000000
C 0.500725 0.575774 0.603800 0.000000
H 0.504368 0.595160 0.621533 0.000000
C 0.528502 0.553540 0.603848 0.000000
H 0.525145 0.535924 0.584318 0.000000
O 0.529121 0.537033 0.632911 0.000000
C 0.559258 0.568555 0.599698 0.000000
H 0.560453 0.579677 0.575657 0.000000
H 0.578384 0.550323 0.601905 0.000000
O 0.563552 0.590514 0.621473 0.000000
O 0.498620 0.588275 0.573308 0.000000
C 0.501924 0.621313 0.570610 0.000000
H 0.504401 0.631762 0.594855 0.000000
C 0.473289 0.634495 0.555342 0.000000
H 0.476029 0.660742 0.552765 0.000000
O 0.446995 0.628163 0.573663 0.000000
C 0.470169 0.619835 0.523124 0.000000
H 0.467421 0.593525 0.525005 0.000000
O 0.443718 0.633428 0.508056 0.000000
C 0.499095 0.627977 0.505287 0.000000
H 0.500221 0.654227 0.501611 0.000000
C 0.527781 0.617176 0.521534 0.000000
H 0.527780 0.590644 0.521894 0.000000
O 0.528586 0.628278 0.553263 0.000000
C 0.557016 0.627983 0.506592 0.000000
H 0.558409 0.618039 0.482022 0.000000
H 0.577822 0.619393 0.520622 0.000000
O 0.558387 0.661625 0.504971 0.000000
O 0.497386 0.612531 0.475777 0.000000
C 0.499355 0.630547 0.448629 0.000000
H 0.500665 0.656155 0.455383 0.000000
C 0.470124 0.625223 0.429795 0.000000
H 0.472080 0.639566 0.407580 0.000000
O 0.443676 0.634748 0.445360 0.000000
C 0.469497 0.590720 0.420493 0.000000
H 0.468539 0.575874 0.442470 0.000000
O 0.442180 0.585278 0.402612 0.000000
C 0.497436 0.582586 0.402817 0.000000
H 0.497413 0.595874 0.379866 0.000000
C 0.526560 0.590954 0.421029 0.000000
H 0.528598 0.574819 0.441980 0.000000
O 0.526020 0.622726 0.431696 0.000000
C 0.555323 0.588614 0.402172 0.000000
O 0.554124 0.608777 0.375924 0.000000
O 0.496873 0.550585 0.396678 0.000000
H 0.480035 0.515962 0.329394 0.000000
H 0.435938 0.539879 0.333300 0.000000
H 0.424312 0.490587 0.366057 0.000000
H 0.550021 0.489896 0.330685 0.000000
H 0.435657 0.431493 0.394148 0.000000
H 0.437165 0.389422 0.459982 0.000000
H 0.539455 0.352229 0.404146 0.000000
H 0.429604 0.366457 0.497219 0.000000
H 0.422755 0.380346 0.542937 0.000000
H 0.555326 0.372206 0.591861 0.000000
H 0.425498 0.415215 0.615908 0.000000
H 0.425568 0.469345 0.617695 0.000000
H 0.545627 0.475031 0.668889 0.000000
H 0.441563 0.531292 0.674294 0.000000
H 0.432796 0.580060 0.590231 0.000000
H 0.547302 0.610145 0.617234 0.000000
H 0.425608 0.632598 0.559880 0.000000
H 0.432992 0.650970 0.523685 0.000000
H 0.548887 0.669558 0.482305 0.000000
H 0.424789 0.639218 0.428322 0.000000
H 0.423801 0.601955 0.409719 0.000000
H 0.558250 0.563614 0.393806 0.000000
H 0.576232 0.595333 0.417044 0.000000
H 0.544064 0.631497 0.382958 0.000000
