data_CD3_PM
_symmetry_space_group_name_H-M   'P 1'
_cell_length_a 44.344395
_cell_length_b 44.344395
_cell_length_c 44.344395
_cell_angle_alpha 90.000000
_cell_angle_beta 90.000000
_cell_angle_gamma 90.000000
_symmetry_Int_Tables_number 1

loop_
_symmetry_equiv_pos_as_xyz
 'x, y, z'

loop_
_atom_site_label
_atom_site_fract_x
_atom_site_fract_y
_atom_site_fract_z
_atom_site_charge
C 0.498183 0.362390 0.573217 0.000000
H 0.493424 0.337403 0.569466 0.000000
C 0.524898 0.365224 0.593548 0.000000
H 0.519341 0.352771 0.615342 0.000000
C 0.529655 0.398908 0.601629 0.000000
H 0.536722 0.411937 0.580634 0.000000
C 0.501147 0.411844 0.613932 0.000000
H 0.495139 0.400127 0.636006 0.000000
C 0.476056 0.407733 0.591622 0.000000
H 0.482740 0.419873 0.569971 0.000000
C 0.445429 0.420439 0.601890 0.000000
H 0.448247 0.445075 0.608615 0.000000
H 0.428546 0.418786 0.582552 0.000000
O 0.551827 0.352286 0.581652 0.000000
O 0.552851 0.401575 0.624622 0.000000
O 0.506469 0.442993 0.619319 0.000000
O 0.472674 0.375644 0.584566 0.000000
O 0.434414 0.404026 0.626639 0.000000
C 0.497844 0.454093 0.647948 0.000000
H 0.492989 0.434189 0.663450 0.000000
C 0.524157 0.471311 0.660256 0.000000
H 0.518105 0.478990 0.684040 0.000000
C 0.530164 0.499406 0.641336 0.000000
H 0.536014 0.492905 0.617178 0.000000
C 0.500985 0.518060 0.642124 0.000000
H 0.495361 0.524730 0.666315 0.000000
C 0.476363 0.499064 0.629267 0.000000
H 0.483092 0.492141 0.605450 0.000000
C 0.446259 0.515388 0.627663 0.000000
H 0.448814 0.536555 0.613312 0.000000
H 0.428695 0.499930 0.616983 0.000000
O 0.551126 0.453815 0.662101 0.000000
O 0.553681 0.518027 0.654184 0.000000
O 0.505659 0.376010 0.544264 0.000000
O 0.472386 0.472479 0.646759 0.000000
O 0.436642 0.523466 0.656452 0.000000
H 0.570674 0.356012 0.597683 0.000000
H 0.566493 0.380586 0.625189 0.000000
H 0.431844 0.379951 0.620211 0.000000
H 0.565530 0.462611 0.680579 0.000000
H 0.573094 0.503610 0.660695 0.000000
H 0.450053 0.511012 0.673544 0.000000
C 0.498255 0.637869 0.426521 0.000000
H 0.493497 0.662870 0.430250 0.000000
C 0.524985 0.635044 0.406191 0.000000
H 0.519447 0.647498 0.384393 0.000000
C 0.529744 0.601347 0.398132 0.000000
H 0.536794 0.588317 0.419133 0.000000
C 0.501244 0.588415 0.385808 0.000000
H 0.495255 0.600133 0.363730 0.000000
C 0.476137 0.592528 0.408099 0.000000
H 0.482803 0.580388 0.429755 0.000000
C 0.445516 0.579826 0.397808 0.000000
H 0.448336 0.555190 0.391084 0.000000
H 0.428618 0.581494 0.417114 0.000000
O 0.551907 0.647967 0.418127 0.000000
O 0.552958 0.598690 0.375138 0.000000
O 0.506566 0.557246 0.380412 0.000000
O 0.472753 0.624630 0.415134 0.000000
O 0.434522 0.596240 0.373050 0.000000
C 0.497962 0.546166 0.351790 0.000000
H 0.493121 0.566083 0.336265 0.000000
C 0.524283 0.528927 0.339489 0.000000
H 0.518247 0.521266 0.315712 0.000000
C 0.530272 0.500849 0.358426 0.000000
H 0.536104 0.507350 0.382589 0.000000
C 0.501091 0.482211 0.357597 0.000000
H 0.495484 0.475529 0.333420 0.000000
C 0.476461 0.501210 0.370435 0.000000
H 0.483173 0.508120 0.394276 0.000000
C 0.446355 0.484890 0.372017 0.000000
H 0.448896 0.463710 0.386388 0.000000
H 0.428784 0.500350 0.382683 0.000000
O 0.551255 0.546437 0.337676 0.000000
O 0.553796 0.482238 0.345577 0.000000
O 0.505707 0.624248 0.455480 0.000000
O 0.472501 0.527783 0.352959 0.000000
O 0.436758 0.476812 0.343220 0.000000
H 0.569562 0.630316 0.419918 0.000000
H 0.575008 0.593988 0.386042 0.000000
H 0.431777 0.580940 0.353446 0.000000
H 0.571143 0.531344 0.339510 0.000000
H 0.573297 0.481451 0.361278 0.000000
H 0.446637 0.454655 0.337060 0.000000
C 0.498171 0.573481 0.637624 0.000000
H 0.493403 0.569744 0.662591 0.000000
C 0.524896 0.593813 0.634780 0.000000
H 0.519345 0.615609 0.647231 0.000000
C 0.529667 0.601873 0.601085 0.000000
H 0.536729 0.580875 0.588058 0.000000
C 0.501169 0.614188 0.588140 0.000000
H 0.495167 0.636283 0.599868 0.000000
C 0.476067 0.591908 0.592255 0.000000
H 0.482745 0.570254 0.580117 0.000000
C 0.445448 0.602177 0.579558 0.000000
H 0.448277 0.608895 0.554892 0.000000
H 0.428556 0.582846 0.581206 0.000000
O 0.551816 0.581873 0.647733 0.000000
O 0.552874 0.624875 0.598438 0.000000
O 0.506503 0.619573 0.556992 0.000000
O 0.472672 0.584841 0.624361 0.000000
O 0.434439 0.626912 0.595955 0.000000
C 0.497894 0.648205 0.545889 0.000000
H 0.493039 0.663716 0.565823 0.000000
C 0.524218 0.660502 0.528680 0.000000
H 0.518179 0.684289 0.520999 0.000000
C 0.530226 0.641580 0.500587 0.000000
H 0.536063 0.617406 0.507109 0.000000
C 0.501053 0.642399 0.481936 0.000000
H 0.495442 0.666593 0.475264 0.000000
C 0.476419 0.629553 0.500924 0.000000
H 0.483136 0.605733 0.507849 0.000000
C 0.446320 0.627962 0.484590 0.000000
H 0.448876 0.613579 0.463431 0.000000
H 0.428747 0.617290 0.500043 0.000000
O 0.551183 0.662354 0.546197 0.000000
O 0.553755 0.654424 0.482005 0.000000
O 0.505639 0.544505 0.623994 0.000000
O 0.472441 0.647015 0.527514 0.000000
O 0.436718 0.656743 0.476528 0.000000
H 0.560199 0.597486 0.665427 0.000000
H 0.574655 0.615749 0.606786 0.000000
H 0.447646 0.629492 0.617061 0.000000
H 0.564307 0.641199 0.543548 0.000000
H 0.564966 0.636215 0.468960 0.000000
H 0.444922 0.673318 0.493403 0.000000
C 0.498267 0.426778 0.362113 0.000000
H 0.493518 0.430528 0.337124 0.000000
C 0.524987 0.406455 0.364960 0.000000
H 0.519443 0.384647 0.352523 0.000000
C 0.529732 0.398395 0.398658 0.000000
H 0.536787 0.419392 0.411690 0.000000
C 0.501222 0.386083 0.411581 0.000000
H 0.495227 0.363976 0.399868 0.000000
C 0.476126 0.408353 0.407466 0.000000
H 0.482798 0.430007 0.419608 0.000000
C 0.445497 0.398089 0.420140 0.000000
H 0.448306 0.391370 0.444808 0.000000
H 0.428608 0.417421 0.418479 0.000000
O 0.551918 0.418379 0.352046 0.000000
O 0.552934 0.375390 0.401323 0.000000
O 0.506532 0.380685 0.442752 0.000000
O 0.472756 0.415421 0.375357 0.000000
O 0.434497 0.373355 0.403735 0.000000
C 0.497912 0.352054 0.453848 0.000000
H 0.493070 0.336543 0.433910 0.000000
C 0.524221 0.339754 0.471077 0.000000
H 0.518173 0.315980 0.478735 0.000000
C 0.530210 0.358675 0.499175 0.000000
H 0.536055 0.382848 0.492658 0.000000
C 0.501022 0.357872 0.517785 0.000000
H 0.495403 0.333679 0.524453 0.000000
C 0.476405 0.370708 0.498797 0.000000
H 0.483129 0.394528 0.491877 0.000000
C 0.446294 0.372316 0.515089 0.000000
H 0.448835 0.386686 0.536269 0.000000
H 0.428733 0.382977 0.499642 0.000000
O 0.551199 0.337911 0.453562 0.000000
O 0.553723 0.345829 0.517775 0.000000
O 0.505728 0.455753 0.375749 0.000000
O 0.472445 0.353247 0.472204 0.000000
O 0.436682 0.343523 0.523163 0.000000
H 0.564978 0.399854 0.341401 0.000000
H 0.567924 0.380853 0.420622 0.000000
H 0.447753 0.352919 0.409521 0.000000
H 0.570948 0.342898 0.468132 0.000000
H 0.559851 0.362033 0.535842 0.000000
H 0.449145 0.335970 0.543514 0.000000
