data_CP1_PM
_symmetry_space_group_name_H-M   'P 1'
_cell_length_a 41.611942
_cell_length_b 41.611942
_cell_length_c 41.611942
_cell_angle_alpha 90.000000
_cell_angle_beta 90.000000
_cell_angle_gamma 90.000000
_symmetry_Int_Tables_number 1

loop_
_symmetry_equiv_pos_as_xyz
 'x, y, z'

loop_
_atom_site_label
_atom_site_fract_x
_atom_site_fract_y
_atom_site_fract_z
_atom_site_charge
C 0.589668 0.438733 0.468789 0.000000
H 0.607575 0.445027 0.455249 0.000000
H 0.593488 0.416822 0.475707 0.000000
C 0.559213 0.439424 0.448757 0.000000
C 0.557261 0.461982 0.423904 0.000000
H 0.574438 0.475963 0.420746 0.000000
C 0.530855 0.464361 0.403739 0.000000
C 0.504535 0.443999 0.409032 0.000000
C 0.506596 0.421530 0.433490 0.000000
H 0.489193 0.407916 0.436914 0.000000
C 0.533634 0.418305 0.453272 0.000000
C 0.533510 0.391276 0.478031 0.000000
H 0.522057 0.373009 0.469063 0.000000
H 0.555497 0.384634 0.481885 0.000000
C 0.518206 0.400060 0.509904 0.000000
C 0.484962 0.396709 0.512738 0.000000
H 0.473333 0.388944 0.495284 0.000000
C 0.468841 0.404565 0.540514 0.000000
C 0.486112 0.416716 0.566868 0.000000
C 0.518947 0.419476 0.564457 0.000000
H 0.530493 0.426995 0.581995 0.000000
C 0.535534 0.411245 0.536194 0.000000
C 0.571828 0.414882 0.536608 0.000000
H 0.581105 0.400448 0.520828 0.000000
H 0.579863 0.408660 0.557555 0.000000
C 0.582700 0.449166 0.529323 0.000000
C 0.585051 0.470764 0.555076 0.000000
H 0.580915 0.463417 0.575776 0.000000
C 0.593308 0.502501 0.550788 0.000000
C 0.599545 0.513979 0.519862 0.000000
C 0.597422 0.492765 0.494277 0.000000
H 0.601504 0.500336 0.473659 0.000000
C 0.589364 0.460369 0.498387 0.000000
C 0.403066 0.555935 0.525424 0.000000
H 0.383883 0.546986 0.535154 0.000000
H 0.399353 0.578739 0.522292 0.000000
C 0.407724 0.540425 0.492779 0.000000
C 0.398705 0.508270 0.489009 0.000000
H 0.388537 0.497835 0.505924 0.000000
C 0.404456 0.491594 0.461000 0.000000
C 0.420192 0.507022 0.435759 0.000000
C 0.427082 0.539464 0.438356 0.000000
H 0.436148 0.550073 0.420864 0.000000
C 0.420765 0.556633 0.466448 0.000000
C 0.429571 0.592177 0.467253 0.000000
H 0.424453 0.601976 0.446751 0.000000
H 0.417133 0.602929 0.483759 0.000000
C 0.465036 0.596163 0.474131 0.000000
C 0.485404 0.593091 0.447728 0.000000
H 0.476445 0.591914 0.427271 0.000000
C 0.518356 0.591701 0.450864 0.000000
C 0.531599 0.592256 0.481721 0.000000
C 0.511535 0.597022 0.507795 0.000000
H 0.520562 0.598569 0.528157 0.000000
C 0.478023 0.599594 0.504748 0.000000
C 0.457627 0.605804 0.534462 0.000000
H 0.467635 0.622613 0.547124 0.000000
H 0.436646 0.613449 0.527763 0.000000
C 0.453319 0.576190 0.555447 0.000000
C 0.473764 0.572909 0.581817 0.000000
H 0.487885 0.589485 0.586842 0.000000
C 0.473444 0.545435 0.600830 0.000000
C 0.454965 0.519374 0.591367 0.000000
C 0.433578 0.523236 0.566199 0.000000
H 0.420469 0.506068 0.560571 0.000000
C 0.430926 0.551847 0.548902 0.000000
C 0.465225 0.468566 0.371977 0.000000
H 0.446452 0.461776 0.359954 0.000000
H 0.481496 0.475167 0.356657 0.000000
C 0.456374 0.496804 0.392503 0.000000
H 0.473342 0.501263 0.407840 0.000000
H 0.453191 0.515714 0.379243 0.000000
C 0.482869 0.441337 0.618803 0.000000
H 0.503774 0.432109 0.623497 0.000000
H 0.469894 0.439752 0.638095 0.000000
C 0.486992 0.475999 0.610277 0.000000
H 0.499425 0.486846 0.626734 0.000000
H 0.498324 0.477977 0.590021 0.000000
C 0.612781 0.560025 0.487013 0.000000
H 0.626027 0.545978 0.473928 0.000000
H 0.624145 0.580260 0.489401 0.000000
C 0.581868 0.566105 0.469764 0.000000
H 0.586089 0.573601 0.448091 0.000000
H 0.569451 0.546416 0.468443 0.000000
C 0.555293 0.506483 0.373299 0.000000
H 0.558129 0.519784 0.391905 0.000000
H 0.550962 0.519804 0.354944 0.000000
H 0.574486 0.494258 0.369546 0.000000
C 0.420483 0.376444 0.528766 0.000000
H 0.436088 0.362688 0.518674 0.000000
H 0.406577 0.385387 0.512650 0.000000
H 0.407993 0.364161 0.543751 0.000000
C 0.570177 0.543614 0.581810 0.000000
H 0.566153 0.555466 0.562437 0.000000
H 0.574782 0.558331 0.598989 0.000000
H 0.551560 0.531120 0.587191 0.000000
C 0.417672 0.436933 0.462801 0.000000
H 0.434758 0.439904 0.447590 0.000000
H 0.408621 0.415862 0.460213 0.000000
H 0.425992 0.439158 0.484235 0.000000
C 0.525244 0.583192 0.394536 0.000000
H 0.512874 0.563784 0.396078 0.000000
H 0.542082 0.580334 0.379057 0.000000
H 0.511577 0.600559 0.387927 0.000000
C 0.503403 0.571032 0.642182 0.000000
H 0.520959 0.578290 0.629067 0.000000
H 0.510992 0.566871 0.663558 0.000000
H 0.487031 0.587322 0.642831 0.000000
O 0.477206 0.441662 0.390235 0.000000
O 0.427179 0.488819 0.409018 0.000000
O 0.467964 0.423147 0.593717 0.000000
O 0.455395 0.490423 0.607749 0.000000
O 0.608962 0.545760 0.518080 0.000000
O 0.564229 0.590187 0.487530 0.000000
O 0.529119 0.485273 0.378350 0.000000
O 0.436463 0.401487 0.545163 0.000000
O 0.597041 0.522699 0.577105 0.000000
O 0.393535 0.460367 0.457540 0.000000
O 0.538919 0.590437 0.425000 0.000000
O 0.490334 0.542272 0.628915 0.000000
