data_CP3_PM
_symmetry_space_group_name_H-M   'P 1'
_cell_length_a 39.999602
_cell_length_b 39.999602
_cell_length_c 39.999602
_cell_angle_alpha 90.000000
_cell_angle_beta 90.000000
_cell_angle_gamma 90.000000
_symmetry_Int_Tables_number 1

loop_
_symmetry_equiv_pos_as_xyz
 'x, y, z'

loop_
_atom_site_label
_atom_site_fract_x
_atom_site_fract_y
_atom_site_fract_z
_atom_site_charge
O 0.399077 0.556476 0.515719 0.000000
O 0.575768 0.589219 0.487707 0.000000
O 0.499225 0.382261 0.518541 0.000000
O 0.539352 0.388300 0.475291 0.000000
O 0.598577 0.560609 0.534281 0.000000
O 0.386803 0.523671 0.468139 0.000000
C 0.510697 0.544191 0.588868 0.000000
C 0.537134 0.541494 0.420243 0.000000
C 0.550805 0.442160 0.566548 0.000000
H 0.573399 0.448984 0.569203 0.000000
C 0.536065 0.487794 0.607176 0.000000
H 0.519961 0.489556 0.625898 0.000000
H 0.558389 0.483283 0.616875 0.000000
C 0.458025 0.510624 0.412616 0.000000
C 0.537095 0.521032 0.588602 0.000000
C 0.565916 0.528052 0.570395 0.000000
H 0.583799 0.512422 0.570447 0.000000
C 0.451909 0.522527 0.581798 0.000000
C 0.470552 0.481254 0.391898 0.000000
H 0.485119 0.489786 0.373792 0.000000
H 0.451184 0.470048 0.381326 0.000000
C 0.435514 0.544094 0.559604 0.000000
H 0.440418 0.567336 0.560195 0.000000
C 0.569042 0.557470 0.552157 0.000000
C 0.547323 0.481585 0.398388 0.000000
H 0.536138 0.489495 0.377793 0.000000
H 0.568473 0.470604 0.391748 0.000000
C 0.492854 0.447380 0.581649 0.000000
C 0.524965 0.456066 0.415603 0.000000
C 0.412277 0.532196 0.536758 0.000000
C 0.415184 0.532011 0.449930 0.000000
C 0.477272 0.537863 0.605671 0.000000
H 0.480599 0.522630 0.624882 0.000000
H 0.468379 0.559265 0.614339 0.000000
C 0.571294 0.562615 0.465863 0.000000
C 0.489918 0.455737 0.412292 0.000000
C 0.429572 0.563528 0.448993 0.000000
H 0.419556 0.581764 0.460437 0.000000
C 0.474238 0.541789 0.413454 0.000000
C 0.510726 0.406500 0.540473 0.000000
C 0.403885 0.498559 0.536120 0.000000
H 0.387358 0.490345 0.521139 0.000000
C 0.444792 0.488187 0.580625 0.000000
C 0.543776 0.416299 0.544419 0.000000
H 0.561155 0.405599 0.532306 0.000000
C 0.458981 0.567847 0.430906 0.000000
H 0.469060 0.589361 0.430439 0.000000
C 0.486636 0.408078 0.450456 0.000000
H 0.473562 0.391980 0.462070 0.000000
C 0.545683 0.566724 0.442869 0.000000
H 0.533651 0.587238 0.442497 0.000000
C 0.581607 0.508290 0.443352 0.000000
H 0.594385 0.488264 0.443223 0.000000
C 0.420356 0.477149 0.558132 0.000000
H 0.414776 0.454067 0.557856 0.000000
C 0.539978 0.432315 0.436475 0.000000
H 0.563645 0.432056 0.438559 0.000000
C 0.526085 0.458569 0.585030 0.000000
C 0.463715 0.462228 0.601042 0.000000
H 0.448173 0.444098 0.607560 0.000000
H 0.472227 0.472766 0.621744 0.000000
C 0.555254 0.511463 0.420500 0.000000
C 0.515131 0.574189 0.571415 0.000000
H 0.497854 0.590459 0.572199 0.000000
C 0.543724 0.581114 0.553066 0.000000
H 0.545929 0.601662 0.541362 0.000000
C 0.471832 0.431244 0.429271 0.000000
H 0.448304 0.430359 0.426237 0.000000
C 0.507808 0.548404 0.396830 0.000000
H 0.509890 0.534080 0.376764 0.000000
H 0.508703 0.572040 0.389417 0.000000
C 0.601687 0.587467 0.511310 0.000000
H 0.623217 0.585228 0.499328 0.000000
H 0.602334 0.608701 0.523971 0.000000
C 0.485750 0.421632 0.559421 0.000000
H 0.463325 0.414178 0.557113 0.000000
C 0.521258 0.409160 0.454131 0.000000
C 0.589856 0.533182 0.466068 0.000000
H 0.607753 0.530228 0.481420 0.000000
C 0.374822 0.546826 0.492073 0.000000
H 0.355601 0.536769 0.503985 0.000000
H 0.366672 0.567005 0.480318 0.000000
C 0.428865 0.506132 0.431226 0.000000
H 0.418136 0.484918 0.431069 0.000000
C 0.521844 0.366252 0.496674 0.000000
H 0.538279 0.353548 0.510136 0.000000
H 0.509368 0.350003 0.482837 0.000000
