data_CP4_PM
_symmetry_space_group_name_H-M   'P 1'
_cell_length_a 40.238072
_cell_length_b 40.238072
_cell_length_c 40.238072
_cell_angle_alpha 90.000000
_cell_angle_beta 90.000000
_cell_angle_gamma 90.000000
_symmetry_Int_Tables_number 1

loop_
_symmetry_equiv_pos_as_xyz
 'x, y, z'

loop_
_atom_site_label
_atom_site_fract_x
_atom_site_fract_y
_atom_site_fract_z
_atom_site_charge
O 0.500781 0.600613 0.425752 0.000000
O 0.500312 0.611444 0.489304 0.000000
O 0.544708 0.502113 0.617533 0.000000
O 0.541906 0.436874 0.599676 0.000000
O 0.506351 0.393632 0.434237 0.000000
O 0.503957 0.437404 0.383596 0.000000
O 0.500831 0.600912 0.547879 0.000000
O 0.460768 0.474342 0.389975 0.000000
O 0.488103 0.416813 0.594379 0.000000
C 0.567675 0.548281 0.485204 0.000000
C 0.565644 0.540179 0.451585 0.000000
C 0.543523 0.557933 0.431431 0.000000
H 0.542842 0.553298 0.408271 0.000000
C 0.522647 0.581911 0.444220 0.000000
C 0.523256 0.588294 0.478292 0.000000
C 0.545916 0.572239 0.497998 0.000000
H 0.546921 0.577532 0.520989 0.000000
C 0.592704 0.533247 0.508980 0.000000
H 0.611096 0.523422 0.495859 0.000000
H 0.602244 0.551246 0.522749 0.000000
C 0.505767 0.601001 0.390718 0.000000
H 0.500190 0.579181 0.381519 0.000000
H 0.491477 0.617948 0.380711 0.000000
H 0.529064 0.606142 0.385901 0.000000
C 0.577775 0.472966 0.523581 0.000000
C 0.578740 0.506695 0.531861 0.000000
C 0.567112 0.516700 0.562979 0.000000
H 0.567887 0.539587 0.568724 0.000000
C 0.554501 0.494215 0.585765 0.000000
C 0.552217 0.460785 0.576735 0.000000
C 0.563953 0.450558 0.546230 0.000000
H 0.562623 0.427670 0.540458 0.000000
C 0.592499 0.459282 0.491505 0.000000
H 0.602152 0.437149 0.496124 0.000000
H 0.610876 0.474038 0.484425 0.000000
C 0.553462 0.534581 0.628928 0.000000
H 0.542487 0.551297 0.615062 0.000000
H 0.546319 0.537280 0.652071 0.000000
H 0.577613 0.537469 0.627469 0.000000
C 0.565270 0.479309 0.437374 0.000000
C 0.568161 0.455990 0.462929 0.000000
C 0.548315 0.427211 0.462524 0.000000
H 0.550131 0.411671 0.480189 0.000000
C 0.526319 0.421104 0.436989 0.000000
C 0.523907 0.444380 0.411138 0.000000
C 0.542672 0.472794 0.411735 0.000000
H 0.540289 0.488477 0.394280 0.000000
C 0.584770 0.511749 0.435917 0.000000
H 0.589692 0.517230 0.412413 0.000000
H 0.606189 0.508908 0.447662 0.000000
C 0.507211 0.370049 0.460842 0.000000
H 0.502308 0.381349 0.481851 0.000000
H 0.490570 0.352722 0.456874 0.000000
H 0.529303 0.359948 0.462048 0.000000
C 0.426909 0.548490 0.529540 0.000000
C 0.426192 0.529799 0.558849 0.000000
C 0.449099 0.537305 0.583663 0.000000
H 0.448052 0.525560 0.604114 0.000000
C 0.473231 0.561190 0.579548 0.000000
H 0.488976 0.565346 0.596634 0.000000
C 0.474238 0.579084 0.550226 0.000000
C 0.450838 0.573473 0.525876 0.000000
H 0.450958 0.586735 0.506348 0.000000
C 0.403705 0.542302 0.500475 0.000000
H 0.383766 0.530377 0.508576 0.000000
H 0.396296 0.563963 0.491477 0.000000
C 0.416590 0.487670 0.469837 0.000000
C 0.419261 0.522247 0.472520 0.000000
C 0.436975 0.538959 0.447614 0.000000
H 0.438975 0.562453 0.448910 0.000000
C 0.451598 0.522626 0.421338 0.000000
H 0.464008 0.534622 0.405263 0.000000
C 0.448094 0.488616 0.418592 0.000000
C 0.430324 0.471389 0.442541 0.000000
H 0.427475 0.448061 0.440316 0.000000
C 0.399212 0.466061 0.495662 0.000000
H 0.389357 0.446490 0.484490 0.000000
H 0.380930 0.478910 0.505975 0.000000
C 0.424106 0.468927 0.554198 0.000000
C 0.422881 0.454330 0.522612 0.000000
C 0.444300 0.427709 0.515976 0.000000
H 0.443590 0.417465 0.494718 0.000000
C 0.466490 0.415881 0.539330 0.000000
H 0.481100 0.398137 0.533990 0.000000
C 0.467118 0.430208 0.570459 0.000000
C 0.445714 0.455936 0.577969 0.000000
H 0.445689 0.464996 0.599794 0.000000
C 0.404365 0.499492 0.563650 0.000000
H 0.384300 0.501268 0.549501 0.000000
H 0.397201 0.497931 0.587144 0.000000
C 0.502438 0.624280 0.521852 0.000000
H 0.484180 0.640482 0.524930 0.000000
H 0.523620 0.636623 0.523844 0.000000
C 0.469702 0.440412 0.389897 0.000000
H 0.456995 0.428504 0.372565 0.000000
H 0.464350 0.430322 0.411688 0.000000
C 0.508938 0.439217 0.611642 0.000000
H 0.500656 0.462172 0.608579 0.000000
H 0.508482 0.434033 0.635670 0.000000
