data_CP5_PM
_symmetry_space_group_name_H-M   'P 1'
_cell_length_a 39.258491
_cell_length_b 39.258491
_cell_length_c 39.258491
_cell_angle_alpha 90.000000
_cell_angle_beta 90.000000
_cell_angle_gamma 90.000000
_symmetry_Int_Tables_number 1

loop_
_symmetry_equiv_pos_as_xyz
 'x, y, z'

loop_
_atom_site_label
_atom_site_fract_x
_atom_site_fract_y
_atom_site_fract_z
_atom_site_charge
Br 0.506339 0.373289 0.509812 0.000000
Br 0.513826 0.555261 0.381138 0.000000
Br 0.504723 0.562950 0.617658 0.000000
O 0.511090 0.409947 0.577768 0.000000
O 0.524606 0.480367 0.379145 0.000000
O 0.502549 0.601884 0.554502 0.000000
O 0.461512 0.430613 0.600715 0.000000
O 0.475358 0.448456 0.379931 0.000000
O 0.493057 0.616149 0.496808 0.000000
C 0.534028 0.423451 0.554931 0.000000
C 0.557119 0.448781 0.563419 0.000000
H 0.558101 0.456573 0.586299 0.000000
C 0.579015 0.463300 0.539400 0.000000
C 0.578886 0.450771 0.505946 0.000000
C 0.556919 0.423699 0.498129 0.000000
H 0.557231 0.414329 0.475809 0.000000
C 0.534937 0.410301 0.521988 0.000000
C 0.542127 0.493983 0.406397 0.000000
C 0.563152 0.474965 0.427508 0.000000
H 0.565855 0.451318 0.423139 0.000000
C 0.580414 0.489636 0.455035 0.000000
C 0.577417 0.524980 0.460710 0.000000
C 0.557557 0.544049 0.438349 0.000000
H 0.555982 0.568025 0.441481 0.000000
C 0.540018 0.528945 0.411533 0.000000
C 0.528511 0.578392 0.551179 0.000000
C 0.549625 0.574191 0.523207 0.000000
H 0.547836 0.589502 0.504570 0.000000
C 0.573814 0.547521 0.521955 0.000000
C 0.576842 0.525440 0.549794 0.000000
C 0.556286 0.530963 0.578117 0.000000
H 0.558786 0.516643 0.597509 0.000000
C 0.532500 0.556593 0.578642 0.000000
C 0.446770 0.456538 0.581232 0.000000
C 0.429591 0.448486 0.551555 0.000000
H 0.429052 0.425445 0.544189 0.000000
C 0.412962 0.473224 0.532033 0.000000
C 0.413817 0.507239 0.543134 0.000000
C 0.431050 0.514848 0.573546 0.000000
H 0.431565 0.537727 0.581377 0.000000
C 0.447353 0.489822 0.592532 0.000000
H 0.458802 0.495577 0.613088 0.000000
C 0.458025 0.452764 0.410935 0.000000
C 0.437737 0.481190 0.414559 0.000000
H 0.437603 0.498015 0.397168 0.000000
C 0.417363 0.485641 0.443493 0.000000
C 0.417216 0.460060 0.468527 0.000000
C 0.438133 0.431958 0.464101 0.000000
H 0.438344 0.414861 0.481198 0.000000
C 0.458770 0.427920 0.435617 0.000000
H 0.473030 0.408494 0.433259 0.000000
C 0.467676 0.593005 0.488335 0.000000
C 0.445361 0.577245 0.510506 0.000000
H 0.446115 0.582438 0.534135 0.000000
C 0.421340 0.553411 0.498193 0.000000
C 0.420838 0.545755 0.463520 0.000000
C 0.443895 0.562687 0.442067 0.000000
H 0.443462 0.557868 0.418330 0.000000
C 0.466938 0.585740 0.453983 0.000000
H 0.482259 0.596665 0.438829 0.000000
C 0.600709 0.465865 0.477707 0.000000
H 0.610308 0.447191 0.463720 0.000000
H 0.619935 0.478534 0.487974 0.000000
C 0.594951 0.543901 0.489649 0.000000
H 0.616314 0.531776 0.495362 0.000000
H 0.601159 0.566926 0.481497 0.000000
C 0.599789 0.493959 0.550571 0.000000
H 0.608635 0.490312 0.573907 0.000000
H 0.619381 0.497214 0.535062 0.000000
C 0.394499 0.461807 0.499993 0.000000
H 0.384488 0.438971 0.504047 0.000000
H 0.375495 0.477750 0.495424 0.000000
C 0.398128 0.519013 0.447194 0.000000
H 0.377631 0.515429 0.461475 0.000000
H 0.390582 0.526997 0.424497 0.000000
C 0.397519 0.536506 0.523716 0.000000
H 0.377278 0.527824 0.511452 0.000000
H 0.389648 0.553870 0.540240 0.000000
C 0.497145 0.431729 0.602800 0.000000
H 0.505210 0.455309 0.599076 0.000000
H 0.504654 0.424352 0.625725 0.000000
C 0.511601 0.447263 0.381462 0.000000
H 0.520504 0.433226 0.362524 0.000000
H 0.518884 0.436681 0.403201 0.000000
C 0.497102 0.627415 0.530106 0.000000
H 0.516617 0.643389 0.530766 0.000000
H 0.476485 0.640425 0.536636 0.000000
