data_DC1_PM
_symmetry_space_group_name_H-M   'P 1'
_cell_length_a 60.173983
_cell_length_b 60.173983
_cell_length_c 60.173983
_cell_angle_alpha 90.000000
_cell_angle_beta 90.000000
_cell_angle_gamma 90.000000
_symmetry_Int_Tables_number 1

loop_
_symmetry_equiv_pos_as_xyz
 'x, y, z'

loop_
_atom_site_label
_atom_site_fract_x
_atom_site_fract_y
_atom_site_fract_z
_atom_site_charge
O 0.508972 0.490302 0.261787 0.000000
C 0.571124 0.636913 0.491382 0.000000
C 0.502165 0.500288 0.357393 0.000000
C 0.555517 0.617330 0.414060 0.000000
C 0.529827 0.561435 0.385418 0.000000
C 0.477936 0.501590 0.366005 0.000000
C 0.514282 0.479024 0.365363 0.000000
C 0.524394 0.501184 0.321237 0.000000
H 0.539039 0.505117 0.330911 0.000000
C 0.512835 0.521805 0.366665 0.000000
C 0.524847 0.543313 0.399025 0.000000
H 0.527585 0.544224 0.416801 0.000000
C 0.569270 0.637042 0.471419 0.000000
C 0.463385 0.517843 0.357237 0.000000
H 0.468765 0.528532 0.343801 0.000000
C 0.567458 0.360628 0.485175 0.000000
C 0.566825 0.636682 0.447631 0.000000
C 0.538840 0.581377 0.395043 0.000000
C 0.503588 0.498689 0.331769 0.000000
C 0.516965 0.540726 0.353333 0.000000
H 0.513083 0.540887 0.335813 0.000000
C 0.562474 0.384040 0.407590 0.000000
C 0.561254 0.382073 0.430759 0.000000
H 0.553339 0.395024 0.440482 0.000000
C 0.526634 0.498782 0.298260 0.000000
H 0.542935 0.501262 0.291110 0.000000
C 0.570210 0.363401 0.441411 0.000000
C 0.516158 0.523877 0.389837 0.000000
H 0.512122 0.510237 0.400873 0.000000
C 0.535347 0.439468 0.379471 0.000000
C 0.525671 0.560194 0.362599 0.000000
H 0.528918 0.574375 0.351991 0.000000
C 0.557931 0.617838 0.437230 0.000000
H 0.552922 0.603618 0.447105 0.000000
C 0.546446 0.597871 0.403512 0.000000
C 0.441924 0.520574 0.365700 0.000000
H 0.431078 0.533031 0.358530 0.000000
C 0.580418 0.346673 0.428829 0.000000
H 0.587405 0.332181 0.436886 0.000000
C 0.581639 0.348646 0.405697 0.000000
H 0.589538 0.335713 0.396002 0.000000
C 0.573288 0.655024 0.434840 0.000000
H 0.580197 0.669671 0.442714 0.000000
C 0.568843 0.361607 0.465225 0.000000
C 0.572683 0.367281 0.395050 0.000000
H 0.573708 0.368630 0.377136 0.000000
C 0.504268 0.458042 0.361925 0.000000
H 0.488127 0.456854 0.354070 0.000000
C 0.553180 0.403290 0.396896 0.000000
C 0.434708 0.507585 0.383537 0.000000
C 0.508135 0.493076 0.285058 0.000000
C 0.545164 0.419671 0.388586 0.000000
C 0.536061 0.479390 0.374202 0.000000
H 0.545425 0.494654 0.375475 0.000000
C 0.412905 0.510743 0.392838 0.000000
C 0.373665 0.515776 0.411967 0.000000
C 0.514507 0.438553 0.369269 0.000000
H 0.506032 0.422787 0.367241 0.000000
C 0.561998 0.635709 0.401324 0.000000
H 0.560219 0.635481 0.383399 0.000000
C 0.570874 0.654507 0.411717 0.000000
H 0.575867 0.668699 0.401860 0.000000
C 0.529650 0.493974 0.250768 0.000000
H 0.535329 0.511372 0.253276 0.000000
H 0.527312 0.491271 0.232687 0.000000
H 0.542366 0.481998 0.256734 0.000000
C 0.332546 0.520763 0.433249 0.000000
H 0.316573 0.522764 0.441336 0.000000
C 0.546282 0.459859 0.381514 0.000000
H 0.562666 0.460678 0.388913 0.000000
C 0.351187 0.513981 0.445429 0.000000
C 0.470548 0.489287 0.384625 0.000000
H 0.481397 0.477921 0.393304 0.000000
C 0.449088 0.492041 0.393032 0.000000
H 0.443875 0.482319 0.407259 0.000000
C 0.371722 0.511488 0.434758 0.000000
H 0.386187 0.506259 0.444187 0.000000
C 0.485437 0.491972 0.318500 0.000000
H 0.469475 0.488011 0.325717 0.000000
C 0.487692 0.489547 0.295519 0.000000
H 0.473428 0.484597 0.285740 0.000000
C 0.394879 0.513151 0.401237 0.000000
C 0.334472 0.525038 0.410468 0.000000
H 0.320058 0.530293 0.401080 0.000000
C 0.348723 0.505923 0.488567 0.000000
C 0.349476 0.509639 0.468893 0.000000
C 0.354990 0.522540 0.399820 0.000000
H 0.356317 0.525904 0.382175 0.000000
O 0.509408 0.508561 0.738251 0.000000
C 0.565548 0.360056 0.508557 0.000000
C 0.502218 0.499397 0.642599 0.000000
C 0.550750 0.380319 0.585840 0.000000
C 0.527226 0.437167 0.614462 0.000000
C 0.477950 0.499224 0.633981 0.000000
C 0.515272 0.520133 0.634667 0.000000
C 0.524416 0.497496 0.678747 0.000000
H 0.538881 0.493029 0.669029 0.000000
C 0.511935 0.477466 0.633286 0.000000
C 0.522968 0.455486 0.600871 0.000000
H 0.525630 0.454479 0.583096 0.000000
C 0.563731 0.360019 0.528501 0.000000
C 0.462694 0.483580 0.642649 0.000000
H 0.467597 0.472565 0.656023 0.000000
C 0.573035 0.636240 0.514747 0.000000
C 0.561324 0.360513 0.552297 0.000000
C 0.535459 0.416898 0.604813 0.000000
C 0.503702 0.500870 0.668233 0.000000
C 0.515281 0.458355 0.646596 0.000000
H 0.511454 0.458341 0.664129 0.000000
C 0.567268 0.613029 0.592343 0.000000
C 0.566112 0.615025 0.569183 0.000000
H 0.557761 0.602350 0.559466 0.000000
C 0.526743 0.499683 0.701734 0.000000
H 0.542924 0.496499 0.708855 0.000000
C 0.575717 0.633356 0.558522 0.000000
C 0.515092 0.475268 0.610102 0.000000
H 0.511601 0.489061 0.599092 0.000000
C 0.537988 0.558756 0.620551 0.000000
C 0.523173 0.438563 0.637292 0.000000
H 0.525875 0.424267 0.647888 0.000000
C 0.553121 0.379676 0.562685 0.000000
H 0.548609 0.394047 0.552780 0.000000
C 0.542408 0.400117 0.596365 0.000000
C 0.441108 0.481894 0.634232 0.000000
H 0.429723 0.469904 0.641350 0.000000
C 0.586510 0.649728 0.571076 0.000000
H 0.594013 0.663975 0.563012 0.000000
C 0.587667 0.647736 0.594213 0.000000
H 0.596001 0.660393 0.603902 0.000000
C 0.567157 0.341970 0.565118 0.000000
H 0.573525 0.327081 0.557270 0.000000
C 0.574408 0.635198 0.534707 0.000000
C 0.578063 0.629418 0.604865 0.000000
H 0.579032 0.628066 0.622797 0.000000
C 0.506229 0.541525 0.638234 0.000000
H 0.490188 0.543398 0.646188 0.000000
C 0.557239 0.594166 0.603065 0.000000
C 0.434471 0.495348 0.616506 0.000000
C 0.508470 0.506013 0.714970 0.000000
C 0.548607 0.578123 0.611404 0.000000
C 0.536958 0.518826 0.625709 0.000000
H 0.545638 0.503165 0.624330 0.000000
C 0.412513 0.493298 0.607237 0.000000
C 0.373023 0.490357 0.588190 0.000000
C 0.517275 0.560574 0.630895 0.000000
H 0.509534 0.576680 0.633025 0.000000
C 0.556599 0.361748 0.598620 0.000000
H 0.554856 0.362067 0.616525 0.000000
C 0.564787 0.342618 0.588250 0.000000
H 0.569299 0.328288 0.598127 0.000000
C 0.529988 0.504176 0.749223 0.000000
H 0.535127 0.486650 0.746575 0.000000
H 0.527720 0.506786 0.767341 0.000000
H 0.543061 0.515825 0.743374 0.000000
C 0.331659 0.487658 0.566944 0.000000
H 0.315618 0.486547 0.558877 0.000000
C 0.547988 0.537907 0.618388 0.000000
H 0.564284 0.536372 0.610886 0.000000
C 0.350646 0.493382 0.554732 0.000000
C 0.471102 0.511988 0.615459 0.000000
H 0.482451 0.522902 0.606821 0.000000
C 0.449532 0.510269 0.607083 0.000000
H 0.444745 0.520313 0.592918 0.000000
C 0.371311 0.494725 0.565389 0.000000
H 0.386018 0.499137 0.555944 0.000000
C 0.485846 0.508230 0.681555 0.000000
H 0.470057 0.512859 0.674362 0.000000
C 0.488190 0.510416 0.704541 0.000000
H 0.474124 0.515854 0.714346 0.000000
C 0.394372 0.491836 0.598889 0.000000
C 0.333388 0.483318 0.589726 0.000000
H 0.318714 0.478910 0.599148 0.000000
C 0.348607 0.501543 0.511597 0.000000
C 0.349167 0.497803 0.531272 0.000000
C 0.354020 0.484653 0.600370 0.000000
H 0.355169 0.481258 0.618007 0.000000
