data_GC1_PM
_symmetry_space_group_name_H-M   'P 1'
_cell_length_a 59.757446
_cell_length_b 59.757446
_cell_length_c 59.757446
_cell_angle_alpha 90.000000
_cell_angle_beta 90.000000
_cell_angle_gamma 90.000000
_symmetry_Int_Tables_number 1

loop_
_symmetry_equiv_pos_as_xyz
 'x, y, z'

loop_
_atom_site_label
_atom_site_fract_x
_atom_site_fract_y
_atom_site_fract_z
_atom_site_charge
C 0.422642 0.369447 0.601849 0.000000
H 0.415127 0.356339 0.612757 0.000000
C 0.438925 0.383715 0.615640 0.000000
H 0.444622 0.398203 0.605370 0.000000
H 0.429969 0.390515 0.630455 0.000000
C 0.459381 0.370404 0.623584 0.000000
H 0.453914 0.357273 0.635617 0.000000
C 0.471294 0.359432 0.603647 0.000000
H 0.478687 0.372718 0.592864 0.000000
H 0.485277 0.348899 0.609988 0.000000
C 0.455544 0.344871 0.589471 0.000000
H 0.450366 0.330019 0.599451 0.000000
C 0.434771 0.358282 0.582128 0.000000
H 0.440006 0.371417 0.569986 0.000000
H 0.422911 0.346938 0.573384 0.000000
C 0.384278 0.383451 0.597580 0.000000
H 0.378019 0.370522 0.608659 0.000000
C 0.368446 0.399978 0.587821 0.000000
C 0.375917 0.419183 0.576200 0.000000
C 0.360148 0.433765 0.566223 0.000000
C 0.337204 0.429897 0.569560 0.000000
H 0.325290 0.441265 0.562061 0.000000
C 0.329406 0.411490 0.582068 0.000000
C 0.345434 0.396470 0.590814 0.000000
H 0.340340 0.381834 0.600108 0.000000
C 0.303970 0.408311 0.585479 0.000000
C 0.292451 0.405582 0.562506 0.000000
H 0.294270 0.420840 0.552059 0.000000
H 0.299802 0.391238 0.553252 0.000000
H 0.274233 0.402476 0.564597 0.000000
C 0.294267 0.429013 0.597537 0.000000
H 0.302909 0.431642 0.613805 0.000000
H 0.296196 0.444434 0.587363 0.000000
H 0.276096 0.426809 0.600860 0.000000
C 0.298085 0.387510 0.599732 0.000000
H 0.303950 0.371910 0.591465 0.000000
H 0.305644 0.388726 0.616687 0.000000
H 0.279669 0.386006 0.601926 0.000000
C 0.367518 0.452265 0.551382 0.000000
H 0.384429 0.452214 0.544886 0.000000
C 0.361049 0.486641 0.530936 0.000000
H 0.379530 0.486041 0.528292 0.000000
C 0.355362 0.509166 0.542050 0.000000
H 0.337116 0.510043 0.545636 0.000000
H 0.364505 0.510504 0.558213 0.000000
C 0.362253 0.528694 0.526760 0.000000
H 0.380686 0.527531 0.523958 0.000000
C 0.350588 0.526769 0.503890 0.000000
H 0.332129 0.528075 0.505952 0.000000
H 0.356227 0.540726 0.492955 0.000000
C 0.356767 0.504325 0.492903 0.000000
H 0.375339 0.503712 0.491116 0.000000
C 0.349611 0.484725 0.507959 0.000000
H 0.354642 0.468693 0.499951 0.000000
H 0.331103 0.484655 0.510008 0.000000
C 0.357743 0.502225 0.452505 0.000000
H 0.375682 0.504431 0.453425 0.000000
C 0.346998 0.499781 0.430252 0.000000
C 0.360078 0.495390 0.410981 0.000000
C 0.350110 0.496296 0.389564 0.000000
C 0.326968 0.499607 0.387770 0.000000
H 0.319541 0.499766 0.371257 0.000000
C 0.313317 0.502672 0.406793 0.000000
C 0.323833 0.503040 0.427972 0.000000
H 0.314235 0.506215 0.442938 0.000000
C 0.287841 0.505767 0.403780 0.000000
C 0.275197 0.508766 0.426180 0.000000
H 0.256927 0.510719 0.423236 0.000000
H 0.277518 0.493923 0.437147 0.000000
H 0.281007 0.524015 0.435099 0.000000
C 0.283321 0.526748 0.389380 0.000000
H 0.291038 0.541749 0.397224 0.000000
H 0.290247 0.524910 0.372231 0.000000
H 0.265055 0.529772 0.387683 0.000000
C 0.277989 0.484959 0.392011 0.000000
H 0.284930 0.482808 0.374922 0.000000
H 0.281751 0.469611 0.401829 0.000000
H 0.259512 0.486441 0.390345 0.000000
C 0.371506 0.565735 0.540262 0.000000
H 0.388219 0.563313 0.533738 0.000000
C 0.365995 0.586999 0.551876 0.000000
C 0.383176 0.601423 0.559510 0.000000
C 0.377640 0.622747 0.568113 0.000000
C 0.355078 0.628735 0.570434 0.000000
H 0.351164 0.644978 0.577403 0.000000
C 0.337632 0.614177 0.564088 0.000000
C 0.343513 0.593393 0.554504 0.000000
H 0.330756 0.582018 0.548684 0.000000
C 0.313086 0.621528 0.567553 0.000000
C 0.295888 0.603660 0.560086 0.000000
H 0.297371 0.600198 0.541869 0.000000
H 0.298223 0.587831 0.569594 0.000000
H 0.278516 0.609518 0.563197 0.000000
C 0.308507 0.642992 0.553912 0.000000
H 0.318948 0.657187 0.559751 0.000000
H 0.312148 0.640098 0.535898 0.000000
H 0.290712 0.648161 0.555504 0.000000
C 0.308977 0.626268 0.592627 0.000000
H 0.312876 0.611166 0.602781 0.000000
H 0.319454 0.640302 0.598792 0.000000
H 0.291199 0.630899 0.595647 0.000000
C 0.461509 0.321797 0.556254 0.000000
H 0.447127 0.311546 0.560350 0.000000
C 0.478693 0.387537 0.655446 0.000000
H 0.470652 0.376037 0.666928 0.000000
N 0.405444 0.384326 0.592897 0.000000
N 0.467836 0.337732 0.569582 0.000000
N 0.474926 0.386025 0.634141 0.000000
N 0.353982 0.468181 0.545402 0.000000
N 0.356721 0.550034 0.537434 0.000000
N 0.346149 0.502336 0.470920 0.000000
O 0.398936 0.423700 0.575384 0.000000
H 0.403057 0.439944 0.573111 0.000000
O 0.382761 0.489579 0.412675 0.000000
H 0.387323 0.482593 0.427387 0.000000
O 0.405685 0.594806 0.559335 0.000000
H 0.408340 0.578113 0.559545 0.000000
C 0.471023 0.649802 0.600166 0.000000
H 0.466729 0.665163 0.609820 0.000000
C 0.449487 0.637065 0.594431 0.000000
H 0.453900 0.620596 0.586897 0.000000
H 0.440063 0.633700 0.610114 0.000000
C 0.434395 0.650052 0.578210 0.000000
H 0.428024 0.665385 0.586669 0.000000
C 0.447369 0.656745 0.557045 0.000000
H 0.451573 0.641371 0.547383 0.000000
H 0.436425 0.667338 0.546365 0.000000
C 0.469091 0.669561 0.562319 0.000000
H 0.465099 0.686184 0.569760 0.000000
C 0.483684 0.656302 0.578793 0.000000
H 0.489874 0.640839 0.570402 0.000000
H 0.498527 0.666538 0.583407 0.000000
C 0.489903 0.637203 0.634334 0.000000
H 0.483492 0.651449 0.643559 0.000000
C 0.505099 0.621142 0.645554 0.000000
C 0.509256 0.599447 0.636943 0.000000
C 0.526560 0.586372 0.646067 0.000000
C 0.538188 0.594051 0.664947 0.000000
H 0.551181 0.583608 0.672000 0.000000
C 0.533210 0.614869 0.674888 0.000000
C 0.516720 0.628359 0.664633 0.000000
H 0.512952 0.644868 0.670963 0.000000
C 0.546111 0.622216 0.696017 0.000000
C 0.571326 0.623823 0.690582 0.000000
H 0.574134 0.635652 0.676520 0.000000
H 0.580878 0.629894 0.705352 0.000000
H 0.578368 0.607310 0.685818 0.000000
C 0.542450 0.604825 0.714806 0.000000
H 0.549162 0.588153 0.710146 0.000000
H 0.551066 0.610093 0.730432 0.000000
H 0.524301 0.603003 0.718446 0.000000
C 0.538522 0.645246 0.705133 0.000000
H 0.548028 0.649703 0.720491 0.000000
H 0.541593 0.658676 0.692635 0.000000
H 0.520477 0.644966 0.709604 0.000000
C 0.532162 0.564607 0.635649 0.000000
H 0.523804 0.559906 0.620257 0.000000
C 0.552540 0.529715 0.634028 0.000000
H 0.544174 0.528204 0.617409 0.000000
C 0.544422 0.510314 0.648824 0.000000
H 0.552315 0.511343 0.665657 0.000000
H 0.525968 0.511567 0.650971 0.000000
C 0.550137 0.487869 0.637659 0.000000
H 0.541707 0.487371 0.621011 0.000000
C 0.575513 0.485980 0.633759 0.000000
H 0.584477 0.485923 0.650088 0.000000
H 0.579186 0.469927 0.625086 0.000000
C 0.583752 0.505581 0.619239 0.000000
H 0.574825 0.504730 0.602874 0.000000
C 0.577954 0.528103 0.630312 0.000000
H 0.583431 0.541992 0.619199 0.000000
H 0.586928 0.529759 0.646558 0.000000
C 0.616810 0.503603 0.595907 0.000000
H 0.606054 0.505602 0.581474 0.000000
C 0.641317 0.501395 0.592543 0.000000
C 0.650219 0.496923 0.571046 0.000000
C 0.673591 0.498014 0.567569 0.000000
C 0.687813 0.501626 0.585853 0.000000
H 0.705686 0.501964 0.582930 0.000000
C 0.679438 0.504765 0.607685 0.000000
C 0.655982 0.504935 0.610598 0.000000
H 0.648749 0.508119 0.626841 0.000000
C 0.695953 0.508242 0.627260 0.000000
C 0.684189 0.511178 0.650169 0.000000
H 0.696692 0.513366 0.663771 0.000000
H 0.673346 0.526279 0.650181 0.000000
H 0.673963 0.496203 0.654326 0.000000
C 0.711573 0.487731 0.629143 0.000000
H 0.722036 0.485658 0.613921 0.000000
H 0.723136 0.489525 0.643594 0.000000
H 0.701591 0.472221 0.631516 0.000000
C 0.710114 0.529428 0.622969 0.000000
H 0.721588 0.532704 0.637251 0.000000
H 0.720588 0.527696 0.607735 0.000000
H 0.699075 0.544255 0.620832 0.000000
C 0.526474 0.455935 0.645229 0.000000
H 0.518559 0.458584 0.629122 0.000000
C 0.518981 0.436856 0.659182 0.000000
C 0.500939 0.423605 0.651910 0.000000
C 0.494923 0.404195 0.664102 0.000000
C 0.505415 0.399845 0.684622 0.000000
H 0.500271 0.385235 0.694000 0.000000
C 0.522646 0.413692 0.692939 0.000000
C 0.529583 0.431933 0.679575 0.000000
H 0.543161 0.442610 0.684846 0.000000
C 0.533279 0.408375 0.715882 0.000000
C 0.551728 0.425232 0.722763 0.000000
H 0.558707 0.420912 0.739455 0.000000
H 0.565839 0.424967 0.710632 0.000000
H 0.544867 0.442489 0.723885 0.000000
C 0.544006 0.384877 0.715246 0.000000
H 0.556718 0.383942 0.701692 0.000000
H 0.552378 0.381025 0.731406 0.000000
H 0.531328 0.371630 0.712295 0.000000
C 0.514989 0.408990 0.734136 0.000000
H 0.522342 0.406022 0.750966 0.000000
H 0.506555 0.425582 0.734275 0.000000
H 0.502097 0.395915 0.731337 0.000000
C 0.477226 0.687152 0.526314 0.000000
H 0.464309 0.699572 0.529078 0.000000
C 0.394948 0.639075 0.575402 0.000000
H 0.389856 0.654313 0.583806 0.000000
N 0.485359 0.634987 0.613254 0.000000
N 0.481779 0.672435 0.541616 0.000000
N 0.415983 0.635356 0.571637 0.000000
N 0.546800 0.551133 0.644408 0.000000
N 0.542341 0.469339 0.651637 0.000000
N 0.607924 0.503792 0.615761 0.000000
O 0.496098 0.590125 0.619910 0.000000
H 0.480078 0.595610 0.619720 0.000000
O 0.636371 0.490835 0.553117 0.000000
H 0.621600 0.483828 0.557457 0.000000
O 0.488914 0.430601 0.633027 0.000000
H 0.472559 0.426260 0.633204 0.000000
C 0.433378 0.510602 0.331571 0.000000
H 0.425502 0.511032 0.314668 0.000000
C 0.446956 0.488929 0.334183 0.000000
H 0.458904 0.487499 0.319974 0.000000
H 0.456962 0.489879 0.349883 0.000000
C 0.432203 0.467891 0.334894 0.000000
H 0.424298 0.465278 0.318205 0.000000
C 0.413844 0.470105 0.352748 0.000000
H 0.402591 0.455333 0.351757 0.000000
H 0.421695 0.470065 0.369653 0.000000
C 0.399889 0.491490 0.350018 0.000000
H 0.390120 0.490541 0.334160 0.000000
C 0.415073 0.512175 0.349542 0.000000
H 0.404686 0.527267 0.346316 0.000000
H 0.423069 0.514291 0.366258 0.000000
C 0.449381 0.547162 0.322047 0.000000
H 0.438782 0.548354 0.307384 0.000000
C 0.465650 0.565246 0.326949 0.000000
C 0.474773 0.568652 0.348574 0.000000
C 0.492656 0.583679 0.351486 0.000000
C 0.500061 0.596601 0.333330 0.000000
H 0.513601 0.608299 0.335922 0.000000
C 0.490179 0.594656 0.311977 0.000000
C 0.473039 0.578616 0.309120 0.000000
H 0.465449 0.575872 0.292943 0.000000
C 0.498596 0.609640 0.292680 0.000000
C 0.495420 0.634491 0.299076 0.000000
H 0.505559 0.639092 0.313941 0.000000
H 0.500665 0.645622 0.285122 0.000000
H 0.477548 0.637932 0.302900 0.000000
C 0.523676 0.604995 0.288471 0.000000
H 0.529919 0.615010 0.274091 0.000000
H 0.534042 0.609418 0.303231 0.000000
H 0.526344 0.586992 0.284650 0.000000
C 0.486030 0.605636 0.270381 0.000000
H 0.488503 0.588194 0.264399 0.000000
H 0.467836 0.608973 0.272333 0.000000
H 0.492380 0.616996 0.257085 0.000000
C 0.503378 0.585698 0.373771 0.000000
H 0.498239 0.574322 0.386928 0.000000
C 0.529624 0.602178 0.399806 0.000000
H 0.524050 0.588114 0.410769 0.000000
C 0.555197 0.600552 0.397290 0.000000
H 0.559576 0.584287 0.389372 0.000000
H 0.561445 0.614230 0.386297 0.000000
C 0.566350 0.602004 0.420447 0.000000
H 0.559953 0.587858 0.430814 0.000000
C 0.559913 0.623962 0.432265 0.000000
H 0.567587 0.624300 0.449205 0.000000
H 0.566425 0.638524 0.422645 0.000000
C 0.534314 0.625588 0.434499 0.000000
H 0.528496 0.610960 0.444544 0.000000
C 0.523177 0.624257 0.411337 0.000000
H 0.528419 0.638737 0.400838 0.000000
H 0.504690 0.624940 0.413374 0.000000
C 0.516536 0.646742 0.464106 0.000000
H 0.511323 0.631034 0.471531 0.000000
C 0.509987 0.667935 0.475235 0.000000
C 0.495814 0.667189 0.494033 0.000000
C 0.490031 0.687247 0.505186 0.000000
C 0.497055 0.707810 0.496394 0.000000
H 0.492060 0.722980 0.504935 0.000000
C 0.510856 0.708999 0.477249 0.000000
C 0.517378 0.688677 0.467028 0.000000
H 0.528101 0.688669 0.452495 0.000000
C 0.518323 0.732100 0.468391 0.000000
C 0.533592 0.730583 0.447502 0.000000
H 0.549238 0.721302 0.451420 0.000000
H 0.524787 0.722194 0.433447 0.000000
H 0.538490 0.747554 0.441667 0.000000
C 0.531524 0.744602 0.486775 0.000000
H 0.520956 0.748135 0.501612 0.000000
H 0.546121 0.734473 0.492260 0.000000
H 0.537800 0.760933 0.480442 0.000000
C 0.497505 0.745933 0.461841 0.000000
H 0.486633 0.749268 0.476531 0.000000
H 0.502484 0.762388 0.454743 0.000000
H 0.487486 0.736854 0.449091 0.000000
C 0.601904 0.583354 0.425703 0.000000
H 0.592883 0.569440 0.432995 0.000000
C 0.626618 0.582047 0.423851 0.000000
C 0.638768 0.565773 0.436049 0.000000
C 0.661807 0.562646 0.431748 0.000000
C 0.672775 0.576952 0.416759 0.000000
H 0.690518 0.574584 0.413996 0.000000
C 0.661323 0.594169 0.405380 0.000000
C 0.638060 0.596222 0.408964 0.000000
H 0.628403 0.608588 0.400027 0.000000
C 0.674406 0.609702 0.389388 0.000000
C 0.659523 0.627739 0.378206 0.000000
H 0.651619 0.638679 0.391010 0.000000
H 0.669659 0.638654 0.367034 0.000000
H 0.646300 0.619889 0.367766 0.000000
C 0.692936 0.621983 0.402592 0.000000
H 0.705296 0.610111 0.409738 0.000000
H 0.702238 0.633709 0.391546 0.000000
H 0.685505 0.631779 0.416563 0.000000
C 0.685141 0.595632 0.370555 0.000000
H 0.693876 0.606570 0.358305 0.000000
H 0.697707 0.583687 0.377228 0.000000
H 0.672095 0.585940 0.361502 0.000000
C 0.363355 0.493698 0.368678 0.000000
H 0.354787 0.492687 0.352718 0.000000
C 0.449219 0.430929 0.329158 0.000000
H 0.441004 0.429272 0.313078 0.000000
N 0.448572 0.529500 0.334608 0.000000
N 0.385037 0.493418 0.369328 0.000000
N 0.446343 0.448899 0.340959 0.000000
N 0.518750 0.600534 0.377915 0.000000
N 0.590714 0.600466 0.418294 0.000000
N 0.528057 0.646497 0.445664 0.000000
O 0.465977 0.558029 0.367542 0.000000
H 0.449517 0.554253 0.366413 0.000000
O 0.486999 0.646454 0.500595 0.000000
H 0.472846 0.647324 0.509820 0.000000
O 0.628549 0.553002 0.452876 0.000000
H 0.614874 0.560004 0.459944 0.000000
C 0.674517 0.468147 0.469457 0.000000
H 0.692843 0.465842 0.466950 0.000000
C 0.666620 0.488841 0.456436 0.000000
H 0.671733 0.487133 0.438624 0.000000
H 0.648003 0.489596 0.456899 0.000000
C 0.676169 0.510763 0.465850 0.000000
H 0.694609 0.511192 0.463055 0.000000
C 0.671282 0.512806 0.490997 0.000000
H 0.679660 0.528080 0.497584 0.000000
H 0.652934 0.514922 0.493512 0.000000
C 0.679343 0.492390 0.504327 0.000000
H 0.697958 0.491591 0.503811 0.000000
C 0.669587 0.470739 0.494541 0.000000
H 0.676712 0.456174 0.503685 0.000000
H 0.651139 0.470577 0.497207 0.000000
C 0.670652 0.430867 0.452609 0.000000
H 0.688646 0.429511 0.450681 0.000000
C 0.656001 0.412429 0.444626 0.000000
C 0.632783 0.412006 0.449189 0.000000
C 0.619249 0.395080 0.439682 0.000000
C 0.629378 0.377728 0.427519 0.000000
H 0.618902 0.364734 0.420535 0.000000
C 0.652700 0.377108 0.423872 0.000000
C 0.665697 0.394948 0.432315 0.000000
H 0.683528 0.395607 0.429488 0.000000
C 0.662951 0.357402 0.410666 0.000000
C 0.657528 0.335209 0.422771 0.000000
H 0.665397 0.320808 0.414018 0.000000
H 0.663943 0.335657 0.440235 0.000000
H 0.639247 0.331994 0.423382 0.000000
C 0.652961 0.356847 0.386843 0.000000
H 0.656050 0.373028 0.378182 0.000000
H 0.660679 0.343261 0.376769 0.000000
H 0.634649 0.353798 0.387151 0.000000
C 0.688713 0.358930 0.408357 0.000000
H 0.696877 0.359065 0.425070 0.000000
H 0.695366 0.344266 0.399023 0.000000
H 0.693649 0.374191 0.398930 0.000000
C 0.594516 0.396252 0.441366 0.000000
H 0.586793 0.411929 0.446114 0.000000
C 0.557425 0.380321 0.438731 0.000000
H 0.552379 0.396587 0.446418 0.000000
C 0.546397 0.378789 0.415516 0.000000
H 0.552441 0.392834 0.404909 0.000000
H 0.551041 0.362764 0.407218 0.000000
C 0.520838 0.380428 0.418000 0.000000
H 0.516893 0.396650 0.426353 0.000000
C 0.512072 0.361514 0.433098 0.000000
H 0.493649 0.363275 0.435093 0.000000
H 0.515497 0.344974 0.425241 0.000000
C 0.523269 0.362798 0.456239 0.000000
H 0.519014 0.379337 0.463775 0.000000
C 0.548885 0.361448 0.454005 0.000000
H 0.553841 0.344887 0.447048 0.000000
H 0.556620 0.363212 0.470845 0.000000
C 0.504048 0.348412 0.488889 0.000000
H 0.500611 0.365510 0.493842 0.000000
C 0.495694 0.329899 0.503154 0.000000
C 0.481948 0.334860 0.521634 0.000000
C 0.474278 0.317335 0.535593 0.000000
C 0.479320 0.295123 0.530112 0.000000
H 0.473012 0.281977 0.540861 0.000000
C 0.492835 0.289737 0.511511 0.000000
C 0.501060 0.307542 0.498287 0.000000
H 0.511638 0.304326 0.483997 0.000000
C 0.498275 0.264966 0.506482 0.000000
C 0.513239 0.261820 0.485581 0.000000
H 0.504870 0.268502 0.470367 0.000000
H 0.529642 0.270295 0.487826 0.000000
H 0.516679 0.243792 0.482569 0.000000
C 0.476290 0.252013 0.502383 0.000000
H 0.479819 0.234280 0.497950 0.000000
H 0.465488 0.251904 0.517479 0.000000
H 0.466758 0.259745 0.488411 0.000000
C 0.510715 0.254595 0.526624 0.000000
H 0.515487 0.236976 0.523072 0.000000
H 0.526210 0.264214 0.530281 0.000000
H 0.500164 0.254495 0.541896 0.000000
C 0.499764 0.396669 0.387531 0.000000
H 0.500017 0.412391 0.396514 0.000000
C 0.488163 0.395548 0.365607 0.000000
C 0.472859 0.412464 0.359221 0.000000
C 0.464168 0.412773 0.337226 0.000000
C 0.469453 0.395290 0.322516 0.000000
H 0.462272 0.395546 0.305898 0.000000
C 0.483708 0.377577 0.328872 0.000000
C 0.493178 0.378227 0.350539 0.000000
H 0.504785 0.365461 0.355892 0.000000
C 0.488574 0.358553 0.312064 0.000000
C 0.504400 0.340348 0.321519 0.000000
H 0.507240 0.326895 0.308967 0.000000
H 0.521021 0.347537 0.325765 0.000000
H 0.497061 0.332384 0.336651 0.000000
C 0.466399 0.346972 0.305547 0.000000
H 0.469535 0.332734 0.293989 0.000000
H 0.457821 0.340421 0.320712 0.000000
H 0.454844 0.358665 0.296906 0.000000
C 0.499693 0.368360 0.290910 0.000000
H 0.515265 0.377470 0.295430 0.000000
H 0.504089 0.354860 0.278891 0.000000
H 0.488406 0.380171 0.282078 0.000000
C 0.683753 0.495226 0.545050 0.000000
H 0.701796 0.494221 0.543437 0.000000
C 0.675014 0.544708 0.442786 0.000000
H 0.693020 0.544215 0.440599 0.000000
N 0.662047 0.448806 0.461271 0.000000
N 0.671303 0.494655 0.527299 0.000000
N 0.665130 0.529343 0.454456 0.000000
N 0.581816 0.379222 0.436717 0.000000
N 0.509987 0.379461 0.396050 0.000000
N 0.515102 0.344657 0.470548 0.000000
O 0.623789 0.428174 0.463616 0.000000
H 0.609528 0.423638 0.471519 0.000000
O 0.475522 0.357158 0.525103 0.000000
H 0.461772 0.359292 0.534739 0.000000
O 0.465459 0.428665 0.374518 0.000000
H 0.466481 0.424213 0.390814 0.000000
