data_HC1_PM
_symmetry_space_group_name_H-M   'P 1'
_cell_length_a 44.754116
_cell_length_b 44.754116
_cell_length_c 44.754116
_cell_angle_alpha 90.000000
_cell_angle_beta 90.000000
_cell_angle_gamma 90.000000
_symmetry_Int_Tables_number 1

loop_
_symmetry_equiv_pos_as_xyz
 'x, y, z'

loop_
_atom_site_label
_atom_site_fract_x
_atom_site_fract_y
_atom_site_fract_z
_atom_site_charge
C 0.610317 0.463848 0.462962 0.000000
C 0.636124 0.449414 0.468907 0.000000
H 0.642155 0.447202 0.489107 0.000000
C 0.655699 0.436745 0.444822 0.000000
H 0.672301 0.424098 0.448711 0.000000
C 0.647322 0.445146 0.417472 0.000000
H 0.661110 0.443046 0.401496 0.000000
C 0.620309 0.456385 0.411906 0.000000
H 0.614188 0.458128 0.391661 0.000000
C 0.600376 0.465859 0.434293 0.000000
C 0.561723 0.479690 0.399321 0.000000
H 0.563399 0.460385 0.388641 0.000000
H 0.573946 0.494549 0.388418 0.000000
C 0.529569 0.489611 0.399319 0.000000
C 0.522866 0.521698 0.398268 0.000000
C 0.548428 0.543036 0.400840 0.000000
H 0.542126 0.560353 0.413039 0.000000
H 0.565096 0.533071 0.411432 0.000000
C 0.558865 0.553561 0.372754 0.000000
H 0.576226 0.566565 0.375772 0.000000
H 0.542956 0.564912 0.362809 0.000000
H 0.564586 0.536534 0.360219 0.000000
N 0.573094 0.476428 0.428526 0.000000
H 0.561652 0.481612 0.443608 0.000000
S 0.587009 0.474909 0.493773 0.000000
C 0.476161 0.613600 0.462951 0.000000
C 0.475736 0.643184 0.468895 0.000000
H 0.474662 0.649507 0.489094 0.000000
C 0.476945 0.666466 0.444808 0.000000
H 0.479581 0.687180 0.448696 0.000000
C 0.473841 0.655004 0.417458 0.000000
H 0.468770 0.667986 0.401482 0.000000
C 0.477618 0.626001 0.411895 0.000000
H 0.479183 0.619834 0.391651 0.000000
C 0.479381 0.603992 0.434284 0.000000
C 0.486735 0.563616 0.399315 0.000000
H 0.502623 0.574698 0.388636 0.000000
H 0.467743 0.566744 0.388410 0.000000
C 0.494221 0.530814 0.399316 0.000000
C 0.469798 0.508961 0.398264 0.000000
C 0.438516 0.520402 0.400831 0.000000
H 0.426695 0.506302 0.413030 0.000000
H 0.438828 0.539841 0.411422 0.000000
C 0.424196 0.524200 0.372743 0.000000
H 0.404264 0.532736 0.375758 0.000000
H 0.422342 0.504738 0.362800 0.000000
H 0.436084 0.537651 0.360209 0.000000
N 0.483873 0.575078 0.428519 0.000000
H 0.485101 0.562588 0.443602 0.000000
S 0.478215 0.587881 0.493764 0.000000
C 0.413553 0.422556 0.462946 0.000000
C 0.388124 0.407406 0.468888 0.000000
H 0.383185 0.403295 0.489087 0.000000
C 0.367368 0.396793 0.444799 0.000000
H 0.348130 0.388727 0.448686 0.000000
C 0.378856 0.399832 0.417451 0.000000
H 0.370142 0.388950 0.401474 0.000000
C 0.402094 0.417618 0.411889 0.000000
H 0.406654 0.422064 0.391645 0.000000
C 0.420258 0.430153 0.434279 0.000000
C 0.451565 0.456698 0.399313 0.000000
H 0.434004 0.464921 0.388631 0.000000
H 0.458336 0.438688 0.388409 0.000000
C 0.476233 0.479601 0.399315 0.000000
C 0.507359 0.469367 0.398267 0.000000
C 0.513079 0.436543 0.400837 0.000000
H 0.531199 0.433348 0.413038 0.000000
H 0.496097 0.427092 0.411427 0.000000
C 0.516947 0.422243 0.372750 0.000000
H 0.519539 0.400726 0.375767 0.000000
H 0.534756 0.430354 0.362809 0.000000
H 0.499363 0.425796 0.360214 0.000000
N 0.443050 0.448498 0.428516 0.000000
H 0.453260 0.455804 0.443599 0.000000
S 0.434777 0.437191 0.493761 0.000000
C 0.523839 0.613600 0.537049 0.000000
C 0.524264 0.643184 0.531105 0.000000
H 0.525338 0.649507 0.510906 0.000000
C 0.523055 0.666466 0.555192 0.000000
H 0.520419 0.687180 0.551304 0.000000
C 0.526159 0.655004 0.582542 0.000000
H 0.531230 0.667986 0.598518 0.000000
C 0.522382 0.626001 0.588105 0.000000
H 0.520817 0.619834 0.608349 0.000000
C 0.520619 0.603992 0.565716 0.000000
C 0.513265 0.563616 0.600685 0.000000
H 0.497377 0.574698 0.611364 0.000000
H 0.532257 0.566744 0.611590 0.000000
C 0.505779 0.530814 0.600684 0.000000
C 0.530202 0.508961 0.601736 0.000000
C 0.561484 0.520402 0.599169 0.000000
H 0.573305 0.506302 0.586970 0.000000
H 0.561172 0.539841 0.588578 0.000000
C 0.575804 0.524200 0.627257 0.000000
H 0.595736 0.532736 0.624242 0.000000
H 0.577658 0.504738 0.637200 0.000000
H 0.563916 0.537651 0.639791 0.000000
N 0.516127 0.575078 0.571481 0.000000
H 0.514899 0.562588 0.556398 0.000000
S 0.521785 0.587881 0.506236 0.000000
C 0.586447 0.422556 0.537054 0.000000
C 0.611876 0.407406 0.531112 0.000000
H 0.616815 0.403295 0.510913 0.000000
C 0.632632 0.396793 0.555201 0.000000
H 0.651870 0.388727 0.551314 0.000000
C 0.621144 0.399832 0.582549 0.000000
H 0.629858 0.388950 0.598526 0.000000
C 0.597906 0.417618 0.588111 0.000000
H 0.593346 0.422064 0.608355 0.000000
C 0.579742 0.430153 0.565721 0.000000
C 0.548435 0.456698 0.600687 0.000000
H 0.565996 0.464921 0.611369 0.000000
H 0.541664 0.438688 0.611591 0.000000
C 0.523767 0.479601 0.600685 0.000000
C 0.492641 0.469367 0.601733 0.000000
C 0.486921 0.436543 0.599163 0.000000
H 0.468801 0.433348 0.586962 0.000000
H 0.503903 0.427092 0.588573 0.000000
C 0.483053 0.422243 0.627250 0.000000
H 0.480461 0.400726 0.624233 0.000000
H 0.465244 0.430354 0.637191 0.000000
H 0.500637 0.425796 0.639786 0.000000
N 0.556950 0.448498 0.571484 0.000000
H 0.546740 0.455804 0.556401 0.000000
S 0.565223 0.437191 0.506239 0.000000
C 0.389683 0.463848 0.537038 0.000000
C 0.363876 0.449414 0.531093 0.000000
H 0.357845 0.447202 0.510893 0.000000
C 0.344301 0.436745 0.555178 0.000000
H 0.327699 0.424098 0.551289 0.000000
C 0.352678 0.445146 0.582528 0.000000
H 0.338890 0.443046 0.598504 0.000000
C 0.379691 0.456385 0.588094 0.000000
H 0.385812 0.458128 0.608339 0.000000
C 0.399624 0.465859 0.565707 0.000000
C 0.438277 0.479690 0.600679 0.000000
H 0.436601 0.460385 0.611359 0.000000
H 0.426054 0.494549 0.611582 0.000000
C 0.470431 0.489611 0.600681 0.000000
C 0.477134 0.521698 0.601732 0.000000
C 0.451572 0.543036 0.599160 0.000000
H 0.457874 0.560353 0.586961 0.000000
H 0.434904 0.533071 0.588568 0.000000
C 0.441135 0.553561 0.627246 0.000000
H 0.423774 0.566565 0.624228 0.000000
H 0.457044 0.564912 0.637191 0.000000
H 0.435414 0.536534 0.639781 0.000000
N 0.426906 0.476428 0.571474 0.000000
H 0.438348 0.481612 0.556392 0.000000
S 0.412991 0.474909 0.506227 0.000000
