data_IC1_PM
_symmetry_space_group_name_H-M   'P 1'
_cell_length_a 59.465097
_cell_length_b 59.465097
_cell_length_c 59.465097
_cell_angle_alpha 90.000000
_cell_angle_beta 90.000000
_cell_angle_gamma 90.000000
_symmetry_Int_Tables_number 1

loop_
_symmetry_equiv_pos_as_xyz
 'x, y, z'

loop_
_atom_site_label
_atom_site_fract_x
_atom_site_fract_y
_atom_site_fract_z
_atom_site_charge
B 0.373704 0.442610 0.569706 0.000000
B 0.398197 0.409524 0.578350 0.000000
B 0.397179 0.442399 0.604562 0.000000
B 0.571363 0.584682 0.615695 0.000000
B 0.604326 0.575985 0.591066 0.000000
B 0.580120 0.609324 0.582799 0.000000
B 0.450039 0.611099 0.394437 0.000000
B 0.449477 0.578666 0.367700 0.000000
B 0.416637 0.585586 0.393034 0.000000
B 0.580826 0.397210 0.410964 0.000000
B 0.605709 0.397243 0.444865 0.000000
B 0.573701 0.370113 0.442304 0.000000
O 0.381928 0.420307 0.563338 0.000000
O 0.406187 0.420143 0.599093 0.000000
O 0.380744 0.453897 0.590356 0.000000
O 0.590728 0.570276 0.610766 0.000000
O 0.599673 0.595594 0.577005 0.000000
O 0.565660 0.604367 0.602077 0.000000
O 0.461352 0.598217 0.376781 0.000000
O 0.426971 0.572156 0.375216 0.000000
O 0.427652 0.605264 0.402868 0.000000
O 0.600063 0.406863 0.422932 0.000000
O 0.593190 0.378511 0.454714 0.000000
O 0.567195 0.378925 0.420270 0.000000
N 0.275513 0.527746 0.463094 0.000000
C 0.251419 0.530709 0.459029 0.000000
H 0.246915 0.548714 0.461105 0.000000
H 0.247326 0.525354 0.441623 0.000000
C 0.357301 0.455305 0.553405 0.000000
C 0.349416 0.476756 0.558990 0.000000
H 0.354391 0.484508 0.574725 0.000000
C 0.335174 0.488625 0.544410 0.000000
C 0.328652 0.478722 0.523727 0.000000
C 0.336550 0.456930 0.518103 0.000000
C 0.350766 0.445494 0.533033 0.000000
H 0.356823 0.428883 0.528578 0.000000
C 0.327621 0.511744 0.551654 0.000000
H 0.342565 0.522643 0.554198 0.000000
H 0.316496 0.520116 0.539284 0.000000
H 0.318310 0.510449 0.567789 0.000000
C 0.330459 0.445245 0.496428 0.000000
H 0.319136 0.455256 0.485546 0.000000
H 0.346000 0.441632 0.486752 0.000000
H 0.321887 0.429096 0.500274 0.000000
C 0.285838 0.514822 0.478858 0.000000
C 0.276003 0.501091 0.495247 0.000000
H 0.257973 0.499457 0.496906 0.000000
C 0.290258 0.489204 0.509892 0.000000
H 0.282989 0.478513 0.522715 0.000000
C 0.313916 0.491135 0.508059 0.000000
C 0.323482 0.505022 0.491434 0.000000
H 0.341538 0.506731 0.489803 0.000000
C 0.308954 0.516597 0.477154 0.000000
C 0.313140 0.531145 0.459679 0.000000
C 0.333193 0.538960 0.450478 0.000000
H 0.349280 0.533588 0.457107 0.000000
C 0.331867 0.553981 0.432188 0.000000
C 0.310655 0.560743 0.423747 0.000000
H 0.309681 0.572262 0.409662 0.000000
C 0.290685 0.552568 0.433411 0.000000
H 0.274490 0.557721 0.426912 0.000000
C 0.292430 0.537644 0.451490 0.000000
C 0.393427 0.577748 0.402836 0.000000
C 0.382760 0.558639 0.394114 0.000000
H 0.390266 0.549551 0.380189 0.000000
C 0.362542 0.550761 0.403326 0.000000
C 0.352705 0.562376 0.421665 0.000000
C 0.363257 0.581878 0.430292 0.000000
C 0.383513 0.589387 0.420758 0.000000
H 0.391657 0.604205 0.427546 0.000000
C 0.352352 0.529820 0.393250 0.000000
H 0.348685 0.532758 0.375194 0.000000
H 0.364464 0.515698 0.394738 0.000000
H 0.336495 0.524604 0.401526 0.000000
C 0.353191 0.594660 0.449731 0.000000
H 0.363519 0.609517 0.454385 0.000000
H 0.336112 0.600682 0.445150 0.000000
H 0.351997 0.583543 0.464674 0.000000
N 0.469455 0.267409 0.524083 0.000000
C 0.466322 0.243112 0.526381 0.000000
H 0.462678 0.235672 0.509656 0.000000
H 0.481908 0.235432 0.533224 0.000000
C 0.408215 0.386150 0.571267 0.000000
C 0.401020 0.375752 0.551408 0.000000
H 0.388204 0.383677 0.541154 0.000000
C 0.410408 0.355277 0.544407 0.000000
C 0.427310 0.344948 0.557573 0.000000
C 0.434352 0.355232 0.577891 0.000000
C 0.424678 0.375727 0.584494 0.000000
H 0.430301 0.383613 0.599949 0.000000
C 0.402353 0.344703 0.522794 0.000000
H 0.388936 0.354846 0.514677 0.000000
H 0.416556 0.343222 0.510788 0.000000
H 0.395434 0.327708 0.526293 0.000000
C 0.452162 0.345209 0.592918 0.000000
H 0.458880 0.329019 0.586589 0.000000
H 0.466431 0.357152 0.594458 0.000000
H 0.444974 0.342174 0.609885 0.000000
C 0.457571 0.284309 0.533871 0.000000
C 0.439253 0.282751 0.548582 0.000000
H 0.432500 0.266734 0.553891 0.000000
C 0.429470 0.302814 0.556422 0.000000
H 0.415224 0.301967 0.567738 0.000000
C 0.437980 0.323977 0.549588 0.000000
C 0.456494 0.325148 0.534885 0.000000
H 0.463208 0.341190 0.529445 0.000000
C 0.465790 0.305045 0.527370 0.000000
C 0.483436 0.300889 0.513001 0.000000
C 0.497740 0.315392 0.501513 0.000000
H 0.496065 0.333452 0.503129 0.000000
C 0.514522 0.305814 0.487787 0.000000
C 0.516428 0.282154 0.485945 0.000000
H 0.529387 0.274848 0.475421 0.000000
C 0.501694 0.267920 0.497776 0.000000
H 0.503187 0.249842 0.496379 0.000000
C 0.485226 0.277836 0.511333 0.000000
C 0.558554 0.351835 0.453811 0.000000
C 0.564134 0.343726 0.475202 0.000000
H 0.579237 0.349620 0.483573 0.000000
C 0.550278 0.328224 0.486289 0.000000
C 0.530306 0.320704 0.475709 0.000000
C 0.524831 0.328553 0.453925 0.000000
C 0.539060 0.344008 0.443169 0.000000
H 0.534698 0.350198 0.426576 0.000000
C 0.557363 0.320504 0.509396 0.000000
H 0.557946 0.335160 0.520937 0.000000
H 0.545934 0.307787 0.516781 0.000000
H 0.574416 0.312911 0.508461 0.000000
C 0.503758 0.320826 0.442146 0.000000
H 0.488780 0.325428 0.452288 0.000000
H 0.501965 0.328652 0.425279 0.000000
H 0.504231 0.302294 0.439932 0.000000
N 0.462651 0.530555 0.731404 0.000000
C 0.457849 0.533438 0.755372 0.000000
H 0.469509 0.545578 0.763317 0.000000
H 0.440401 0.539740 0.757535 0.000000
C 0.406210 0.455059 0.625885 0.000000
C 0.422858 0.445347 0.639422 0.000000
H 0.429269 0.428765 0.635404 0.000000
C 0.431601 0.457039 0.657990 0.000000
C 0.423469 0.478787 0.663063 0.000000
C 0.406473 0.488506 0.649583 0.000000
C 0.397974 0.476499 0.631140 0.000000
H 0.385049 0.484075 0.620771 0.000000
C 0.449728 0.446278 0.672041 0.000000
H 0.454076 0.429181 0.665881 0.000000
H 0.465196 0.456735 0.671508 0.000000
H 0.443939 0.444769 0.689727 0.000000
C 0.397474 0.511687 0.654521 0.000000
H 0.411324 0.524185 0.653593 0.000000
H 0.384281 0.516780 0.642333 0.000000
H 0.390019 0.512040 0.671640 0.000000
C 0.451408 0.516980 0.716925 0.000000
C 0.433132 0.502937 0.721517 0.000000
H 0.426031 0.501785 0.738232 0.000000
C 0.424082 0.490231 0.703707 0.000000
H 0.409885 0.479274 0.706849 0.000000
C 0.433311 0.491772 0.681807 0.000000
C 0.451761 0.506022 0.677632 0.000000
H 0.458997 0.507436 0.660979 0.000000
C 0.460324 0.518338 0.695570 0.000000
C 0.477820 0.533368 0.696764 0.000000
C 0.492633 0.540977 0.680336 0.000000
H 0.491444 0.535049 0.663159 0.000000
C 0.509286 0.556482 0.686821 0.000000
C 0.510556 0.563996 0.709361 0.000000
H 0.523391 0.575954 0.714270 0.000000
C 0.495288 0.556044 0.725609 0.000000
H 0.496491 0.561899 0.742764 0.000000
C 0.478906 0.540553 0.718808 0.000000
C 0.555367 0.577966 0.635565 0.000000
C 0.535744 0.590321 0.639689 0.000000
H 0.531818 0.604922 0.629481 0.000000
C 0.520726 0.583860 0.656700 0.000000
C 0.525531 0.564620 0.669893 0.000000
C 0.545550 0.552355 0.665982 0.000000
C 0.560278 0.559187 0.648892 0.000000
H 0.575496 0.549616 0.645801 0.000000
C 0.499747 0.597770 0.659843 0.000000
H 0.504489 0.615490 0.663371 0.000000
H 0.489553 0.597263 0.644193 0.000000
H 0.489022 0.591866 0.673895 0.000000
C 0.551194 0.531790 0.679715 0.000000
H 0.537917 0.518870 0.677496 0.000000
H 0.567504 0.524274 0.674578 0.000000
H 0.552357 0.536399 0.697766 0.000000
N 0.723561 0.469071 0.540430 0.000000
C 0.747273 0.464538 0.545139 0.000000
H 0.757200 0.466209 0.529398 0.000000
H 0.754193 0.476385 0.557725 0.000000
C 0.624081 0.559952 0.584102 0.000000
C 0.628772 0.540650 0.596729 0.000000
H 0.618921 0.536911 0.611608 0.000000
C 0.646007 0.525883 0.590220 0.000000
C 0.658811 0.530613 0.570724 0.000000
C 0.654188 0.550210 0.558022 0.000000
C 0.636863 0.564648 0.564877 0.000000
H 0.633333 0.579556 0.554993 0.000000
C 0.650365 0.505050 0.603990 0.000000
H 0.648146 0.489871 0.593369 0.000000
H 0.667808 0.505411 0.610643 0.000000
H 0.638661 0.503732 0.618499 0.000000
C 0.667104 0.556431 0.537089 0.000000
H 0.655436 0.557043 0.522534 0.000000
H 0.674837 0.573280 0.539325 0.000000
H 0.680767 0.544422 0.532994 0.000000
C 0.710029 0.485115 0.549498 0.000000
C 0.715439 0.501430 0.565576 0.000000
H 0.732100 0.502861 0.572654 0.000000
C 0.698408 0.516309 0.572522 0.000000
H 0.702257 0.529103 0.584914 0.000000
C 0.676474 0.514744 0.563451 0.000000
C 0.671384 0.498186 0.547327 0.000000
H 0.654672 0.496739 0.540220 0.000000
C 0.688554 0.483693 0.540762 0.000000
C 0.688711 0.466151 0.525694 0.000000
C 0.671789 0.457091 0.512321 0.000000
H 0.654911 0.463957 0.512599 0.000000
C 0.677251 0.438536 0.498651 0.000000
C 0.699381 0.429740 0.498686 0.000000
H 0.703517 0.415424 0.488219 0.000000
C 0.716136 0.439277 0.512405 0.000000
H 0.732996 0.432454 0.512495 0.000000
C 0.710262 0.457599 0.525896 0.000000
C 0.625302 0.407953 0.458890 0.000000
C 0.637242 0.426466 0.450528 0.000000
H 0.633151 0.433206 0.434091 0.000000
C 0.654329 0.436553 0.463303 0.000000
C 0.659625 0.427850 0.484800 0.000000
C 0.647676 0.409101 0.493225 0.000000
C 0.630637 0.399340 0.480159 0.000000
H 0.621412 0.385058 0.486741 0.000000
C 0.666728 0.456572 0.453917 0.000000
H 0.684969 0.452778 0.452864 0.000000
H 0.660725 0.461023 0.436788 0.000000
H 0.664132 0.471366 0.464993 0.000000
C 0.652750 0.399562 0.516157 0.000000
H 0.641696 0.385072 0.520263 0.000000
H 0.670465 0.393680 0.516776 0.000000
H 0.650178 0.412706 0.529156 0.000000
N 0.535943 0.730583 0.475459 0.000000
C 0.540752 0.754596 0.473210 0.000000
H 0.559201 0.757164 0.471786 0.000000
H 0.532628 0.761871 0.458114 0.000000
C 0.573894 0.629527 0.567032 0.000000
C 0.586997 0.634083 0.548011 0.000000
H 0.601655 0.623875 0.544372 0.000000
C 0.581380 0.651663 0.533368 0.000000
C 0.562113 0.664947 0.537828 0.000000
C 0.548932 0.660485 0.557126 0.000000
C 0.554977 0.642827 0.571565 0.000000
H 0.544785 0.639362 0.586275 0.000000
C 0.596329 0.655390 0.513197 0.000000
H 0.591096 0.669864 0.502708 0.000000
H 0.613803 0.658563 0.518935 0.000000
H 0.596192 0.640121 0.502469 0.000000
C 0.528290 0.674252 0.562339 0.000000
H 0.533066 0.692172 0.564560 0.000000
H 0.516054 0.672826 0.548321 0.000000
H 0.519877 0.668502 0.577996 0.000000
C 0.543478 0.716812 0.492003 0.000000
C 0.557221 0.722390 0.510228 0.000000
H 0.563277 0.739382 0.512681 0.000000
C 0.563145 0.705225 0.525383 0.000000
H 0.573874 0.709138 0.539570 0.000000
C 0.555336 0.682965 0.522137 0.000000
C 0.541422 0.677774 0.503677 0.000000
H 0.535344 0.660816 0.500910 0.000000
C 0.535854 0.695130 0.488980 0.000000
C 0.523009 0.695347 0.469751 0.000000
C 0.511288 0.678278 0.458842 0.000000
H 0.511259 0.661272 0.465375 0.000000
C 0.499446 0.683846 0.439099 0.000000
C 0.499742 0.706158 0.430856 0.000000
H 0.490661 0.710378 0.415629 0.000000
C 0.511733 0.723091 0.442230 0.000000
H 0.511761 0.740043 0.435730 0.000000
C 0.523353 0.717208 0.461858 0.000000
C 0.462916 0.631208 0.405691 0.000000
C 0.452890 0.643353 0.423195 0.000000
H 0.436017 0.639188 0.428686 0.000000
C 0.464462 0.660831 0.433990 0.000000
C 0.486653 0.666257 0.427121 0.000000
C 0.496712 0.654162 0.409210 0.000000
C 0.484677 0.636804 0.398693 0.000000
H 0.492572 0.627513 0.385114 0.000000
C 0.452459 0.673017 0.452733 0.000000
H 0.462413 0.686934 0.460083 0.000000
H 0.436533 0.680279 0.446226 0.000000
H 0.448429 0.660935 0.466397 0.000000
C 0.520232 0.658851 0.400917 0.000000
H 0.519626 0.663527 0.382850 0.000000
H 0.528712 0.672674 0.410101 0.000000
H 0.530681 0.643488 0.402830 0.000000
N 0.531429 0.471173 0.268340 0.000000
C 0.534072 0.467888 0.244098 0.000000
H 0.517438 0.464282 0.236461 0.000000
H 0.541117 0.483390 0.236421 0.000000
C 0.461830 0.563231 0.350221 0.000000
C 0.483936 0.567998 0.343607 0.000000
H 0.492405 0.582733 0.350189 0.000000
C 0.495443 0.553641 0.328795 0.000000
C 0.484581 0.534200 0.320478 0.000000
C 0.462159 0.529541 0.326869 0.000000
C 0.450990 0.544150 0.341640 0.000000
H 0.433872 0.540414 0.346645 0.000000
C 0.519307 0.559083 0.322229 0.000000
H 0.520442 0.561033 0.303702 0.000000
H 0.525245 0.574945 0.330116 0.000000
H 0.530665 0.545297 0.327667 0.000000
C 0.450141 0.508908 0.318350 0.000000
H 0.449214 0.509403 0.299714 0.000000
H 0.459396 0.493582 0.323651 0.000000
H 0.432739 0.507762 0.325002 0.000000
C 0.519469 0.487727 0.278480 0.000000
C 0.507101 0.504911 0.268259 0.000000
H 0.506137 0.506422 0.250155 0.000000
C 0.495733 0.520279 0.282216 0.000000
H 0.485959 0.533670 0.274653 0.000000
C 0.496893 0.518269 0.305913 0.000000
C 0.509495 0.500821 0.315810 0.000000
H 0.510485 0.499003 0.333908 0.000000
C 0.520521 0.485894 0.301571 0.000000
C 0.533623 0.467373 0.306045 0.000000
C 0.540033 0.457602 0.326312 0.000000
H 0.534788 0.464723 0.342237 0.000000
C 0.553518 0.438156 0.325441 0.000000
C 0.560116 0.429087 0.304436 0.000000
H 0.570424 0.414092 0.303819 0.000000
C 0.553379 0.439355 0.284208 0.000000
H 0.558478 0.432174 0.268308 0.000000
C 0.540029 0.458704 0.285456 0.000000
C 0.573924 0.407642 0.387712 0.000000
C 0.555279 0.399326 0.375997 0.000000
H 0.545724 0.385378 0.382816 0.000000
C 0.548536 0.408954 0.355546 0.000000
C 0.560821 0.427312 0.346554 0.000000
C 0.579856 0.435592 0.358320 0.000000
C 0.586162 0.425625 0.378727 0.000000
H 0.600682 0.432142 0.387639 0.000000
C 0.527979 0.399279 0.344252 0.000000
H 0.523651 0.407729 0.328238 0.000000
H 0.530807 0.381181 0.340619 0.000000
H 0.513298 0.400863 0.355696 0.000000
C 0.593903 0.454991 0.349900 0.000000
H 0.611561 0.449350 0.347633 0.000000
H 0.588029 0.461902 0.333635 0.000000
H 0.593572 0.468803 0.362459 0.000000
H 0.241140 0.520659 0.470841 0.000000
H 0.452237 0.239033 0.537846 0.000000
H 0.459546 0.517020 0.764094 0.000000
H 0.749143 0.447181 0.551741 0.000000
H 0.534462 0.763666 0.488255 0.000000
H 0.545567 0.453759 0.240295 0.000000
