data_IC2_PM
_symmetry_space_group_name_H-M   'P 1'
_cell_length_a 44.352104
_cell_length_b 44.352104
_cell_length_c 44.352104
_cell_angle_alpha 90.000000
_cell_angle_beta 90.000000
_cell_angle_gamma 90.000000
_symmetry_Int_Tables_number 1

loop_
_symmetry_equiv_pos_as_xyz
 'x, y, z'

loop_
_atom_site_label
_atom_site_fract_x
_atom_site_fract_y
_atom_site_fract_z
_atom_site_charge
C 0.557732 0.500487 0.633698 0.000000
C 0.547444 0.471515 0.641665 0.000000
H 0.560069 0.451950 0.634445 0.000000
C 0.518926 0.467406 0.654949 0.000000
C 0.502680 0.492929 0.664408 0.000000
H 0.480931 0.489840 0.675046 0.000000
C 0.511728 0.521996 0.655704 0.000000
C 0.539682 0.525501 0.641122 0.000000
H 0.545587 0.547412 0.632172 0.000000
C 0.583151 0.504432 0.611811 0.000000
C 0.599700 0.531579 0.610768 0.000000
H 0.597364 0.548236 0.628447 0.000000
C 0.617585 0.538592 0.585709 0.000000
H 0.628030 0.560613 0.584257 0.000000
C 0.620221 0.518125 0.561755 0.000000
C 0.606434 0.489816 0.564147 0.000000
H 0.607726 0.473879 0.545668 0.000000
C 0.587848 0.483115 0.588659 0.000000
H 0.575300 0.462247 0.587903 0.000000
C 0.631412 0.527994 0.531949 0.000000
C 0.616278 0.551366 0.517108 0.000000
H 0.599530 0.564642 0.528909 0.000000
C 0.619715 0.555437 0.486102 0.000000
H 0.605063 0.571686 0.475400 0.000000
C 0.638995 0.536575 0.469131 0.000000
C 0.656913 0.515568 0.485029 0.000000
H 0.672986 0.501405 0.473398 0.000000
C 0.652631 0.510858 0.515977 0.000000
H 0.664718 0.492799 0.527107 0.000000
C 0.635906 0.535227 0.435413 0.000000
C 0.622671 0.559223 0.419305 0.000000
H 0.620364 0.581341 0.429313 0.000000
C 0.609058 0.554178 0.391312 0.000000
H 0.595696 0.572199 0.381780 0.000000
C 0.609524 0.525308 0.378098 0.000000
C 0.628306 0.503362 0.391227 0.000000
H 0.630998 0.481421 0.380874 0.000000
C 0.640697 0.507943 0.419845 0.000000
H 0.651429 0.488863 0.430524 0.000000
C 0.585428 0.516312 0.356198 0.000000
C 0.570486 0.537764 0.338095 0.000000
H 0.580134 0.559876 0.334522 0.000000
C 0.541383 0.532003 0.327092 0.000000
H 0.529422 0.549941 0.315656 0.000000
C 0.526706 0.504684 0.333958 0.000000
C 0.543852 0.481600 0.347390 0.000000
H 0.533903 0.460120 0.353139 0.000000
C 0.572650 0.487356 0.358403 0.000000
H 0.583006 0.469847 0.371845 0.000000
C 0.502594 0.438485 0.649579 0.000000
C 0.473364 0.439646 0.637328 0.000000
H 0.460949 0.460606 0.636368 0.000000
C 0.461381 0.415072 0.621947 0.000000
H 0.440409 0.418619 0.610074 0.000000
C 0.478124 0.388323 0.618452 0.000000
C 0.505445 0.385665 0.634552 0.000000
H 0.518535 0.365089 0.633583 0.000000
C 0.517681 0.410577 0.649737 0.000000
H 0.539918 0.408664 0.659618 0.000000
C 0.470338 0.367257 0.593202 0.000000
C 0.440778 0.366246 0.581504 0.000000
H 0.421906 0.374610 0.594520 0.000000
C 0.435746 0.358165 0.551434 0.000000
H 0.413448 0.361702 0.542208 0.000000
C 0.459967 0.349598 0.532849 0.000000
C 0.488145 0.344444 0.546543 0.000000
H 0.507000 0.336136 0.533452 0.000000
C 0.493458 0.353719 0.576172 0.000000
H 0.516455 0.353136 0.584217 0.000000
C 0.457653 0.352704 0.499355 0.000000
C 0.430111 0.348942 0.483950 0.000000
H 0.410724 0.339397 0.495283 0.000000
C 0.426759 0.359143 0.454137 0.000000
H 0.404942 0.357257 0.443340 0.000000
C 0.450996 0.373001 0.439062 0.000000
C 0.479022 0.374521 0.453758 0.000000
H 0.498109 0.385643 0.443386 0.000000
C 0.482280 0.364599 0.483322 0.000000
H 0.503705 0.368772 0.494229 0.000000
C 0.446865 0.389953 0.410325 0.000000
C 0.421273 0.408097 0.405751 0.000000
H 0.401806 0.406091 0.420338 0.000000
C 0.421838 0.431509 0.384491 0.000000
H 0.402188 0.445801 0.382721 0.000000
C 0.448468 0.438089 0.368284 0.000000
C 0.472163 0.416854 0.369889 0.000000
H 0.493058 0.419813 0.357811 0.000000
C 0.471084 0.392897 0.390186 0.000000
H 0.490623 0.378380 0.392130 0.000000
C 0.489079 0.546832 0.653596 0.000000
C 0.498060 0.577276 0.654283 0.000000
H 0.520334 0.583403 0.662211 0.000000
C 0.479715 0.599655 0.641621 0.000000
H 0.488341 0.622429 0.639935 0.000000
C 0.451953 0.591997 0.628268 0.000000
C 0.441200 0.562415 0.631739 0.000000
H 0.420082 0.555519 0.621666 0.000000
C 0.459531 0.540100 0.644101 0.000000
H 0.451587 0.517096 0.642911 0.000000
C 0.438101 0.611501 0.604740 0.000000
C 0.456893 0.625005 0.583081 0.000000
H 0.481041 0.626205 0.586460 0.000000
C 0.445558 0.632789 0.554788 0.000000
H 0.461472 0.639691 0.537618 0.000000
C 0.415185 0.627266 0.547529 0.000000
C 0.395537 0.618179 0.570721 0.000000
H 0.371834 0.614518 0.566096 0.000000
C 0.406907 0.610399 0.599123 0.000000
H 0.391687 0.600854 0.615657 0.000000
C 0.406456 0.624005 0.515269 0.000000
C 0.419867 0.642087 0.492962 0.000000
H 0.432070 0.662327 0.499082 0.000000
C 0.420462 0.632515 0.462886 0.000000
H 0.433110 0.645560 0.446589 0.000000
C 0.407445 0.604814 0.454635 0.000000
C 0.390555 0.588899 0.476176 0.000000
H 0.380365 0.567434 0.470616 0.000000
C 0.390072 0.598378 0.506205 0.000000
H 0.379612 0.583747 0.522675 0.000000
C 0.416606 0.589418 0.426339 0.000000
C 0.447252 0.588924 0.418390 0.000000
H 0.463547 0.602267 0.430753 0.000000
C 0.457853 0.568865 0.396639 0.000000
H 0.481960 0.567529 0.393184 0.000000
C 0.438027 0.548979 0.381870 0.000000
C 0.406969 0.551099 0.388132 0.000000
H 0.391070 0.536365 0.376941 0.000000
C 0.396394 0.571006 0.410289 0.000000
H 0.372607 0.571023 0.415840 0.000000
C 0.493011 0.502738 0.335595 0.000000
C 0.479075 0.474270 0.336436 0.000000
H 0.490504 0.455602 0.325731 0.000000
C 0.453997 0.469003 0.355257 0.000000
C 0.439245 0.494344 0.367719 0.000000
H 0.421102 0.491312 0.383658 0.000000
C 0.450303 0.523745 0.363314 0.000000
C 0.476972 0.527677 0.346719 0.000000
H 0.486982 0.549863 0.345635 0.000000
