data_MC1_PM
_symmetry_space_group_name_H-M   'P 1'
_cell_length_a 55.023611
_cell_length_b 55.023611
_cell_length_c 55.023611
_cell_angle_alpha 90.000000
_cell_angle_beta 90.000000
_cell_angle_gamma 90.000000
_symmetry_Int_Tables_number 1

loop_
_symmetry_equiv_pos_as_xyz
 'x, y, z'

loop_
_atom_site_label
_atom_site_fract_x
_atom_site_fract_y
_atom_site_fract_z
_atom_site_charge
C 0.485139 0.467820 0.343170 0.000000
C 0.483738 0.457725 0.319490 0.000000
C 0.478027 0.472324 0.299614 0.000000
H 0.476801 0.464604 0.281562 0.000000
C 0.473841 0.497153 0.303278 0.000000
H 0.469255 0.508480 0.287874 0.000000
C 0.475834 0.507538 0.326588 0.000000
C 0.481315 0.492639 0.346755 0.000000
H 0.482156 0.499964 0.364969 0.000000
N 0.471253 0.533063 0.329140 0.000000
C 0.479907 0.546902 0.346213 0.000000
H 0.492532 0.539587 0.359415 0.000000
C 0.473360 0.573007 0.347355 0.000000
C 0.454213 0.582044 0.333042 0.000000
H 0.444560 0.569436 0.321541 0.000000
C 0.447602 0.606783 0.333632 0.000000
C 0.426592 0.617242 0.318234 0.000000
C 0.414347 0.598111 0.301616 0.000000
H 0.427715 0.590182 0.288709 0.000000
H 0.405990 0.583328 0.312551 0.000000
H 0.399606 0.606526 0.290645 0.000000
C 0.406834 0.627583 0.335291 0.000000
H 0.391070 0.634465 0.324722 0.000000
H 0.400259 0.613223 0.347899 0.000000
H 0.413841 0.642925 0.346356 0.000000
C 0.436402 0.637742 0.301746 0.000000
H 0.451191 0.630715 0.289915 0.000000
H 0.421737 0.645054 0.289915 0.000000
H 0.443669 0.653155 0.312510 0.000000
C 0.460524 0.622206 0.349462 0.000000
H 0.455502 0.641172 0.350822 0.000000
C 0.479327 0.613559 0.364328 0.000000
C 0.486396 0.588849 0.362678 0.000000
O 0.506685 0.579768 0.375071 0.000000
H 0.518969 0.592479 0.380070 0.000000
C 0.489898 0.630766 0.382094 0.000000
H 0.488670 0.649970 0.378114 0.000000
N 0.497043 0.623349 0.403358 0.000000
C 0.505498 0.638365 0.423014 0.000000
C 0.511876 0.663140 0.419886 0.000000
H 0.511865 0.671547 0.402143 0.000000
C 0.518293 0.677569 0.439891 0.000000
H 0.522638 0.696588 0.437396 0.000000
C 0.518544 0.667264 0.463032 0.000000
C 0.513208 0.642251 0.466165 0.000000
C 0.506797 0.627907 0.446263 0.000000
H 0.501996 0.609004 0.448919 0.000000
C 0.513452 0.633779 0.492595 0.000000
H 0.509412 0.614123 0.495028 0.000000
C 0.538220 0.641608 0.502380 0.000000
C 0.554498 0.626617 0.514756 0.000000
H 0.550225 0.607615 0.517553 0.000000
C 0.575948 0.636543 0.524381 0.000000
N 0.591744 0.620845 0.538010 0.000000
C 0.607022 0.627753 0.554646 0.000000
H 0.608950 0.646800 0.559156 0.000000
C 0.581360 0.661422 0.520493 0.000000
H 0.598169 0.669260 0.526965 0.000000
C 0.565062 0.676463 0.507981 0.000000
H 0.569146 0.695540 0.505402 0.000000
C 0.543397 0.666664 0.499201 0.000000
C 0.523181 0.680988 0.486724 0.000000
H 0.527191 0.700634 0.484316 0.000000
C 0.500641 0.675787 0.502151 0.000000
C 0.485848 0.693252 0.513001 0.000000
H 0.489751 0.712416 0.510850 0.000000
C 0.465822 0.685712 0.526836 0.000000
H 0.454354 0.699272 0.535311 0.000000
C 0.460368 0.660863 0.529756 0.000000
C 0.475588 0.643218 0.518988 0.000000
H 0.472492 0.623993 0.521540 0.000000
C 0.495491 0.650714 0.505236 0.000000
N 0.439805 0.654363 0.544489 0.000000
C 0.428487 0.633613 0.544156 0.000000
H 0.433671 0.619842 0.531170 0.000000
C 0.407527 0.629095 0.560520 0.000000
C 0.399056 0.605211 0.565255 0.000000
O 0.411722 0.584655 0.557142 0.000000
H 0.429330 0.587422 0.552760 0.000000
C 0.377650 0.601892 0.579078 0.000000
C 0.365682 0.622190 0.588775 0.000000
H 0.349407 0.619268 0.599435 0.000000
C 0.374328 0.645985 0.585238 0.000000
C 0.360693 0.667527 0.597001 0.000000
C 0.372828 0.692430 0.592010 0.000000
H 0.391757 0.692739 0.599091 0.000000
H 0.372982 0.696580 0.572241 0.000000
H 0.362676 0.707310 0.601167 0.000000
C 0.334521 0.668639 0.586941 0.000000
H 0.334803 0.670577 0.566844 0.000000
H 0.324072 0.652013 0.591557 0.000000
H 0.324534 0.684410 0.594715 0.000000
C 0.359860 0.664003 0.624833 0.000000
H 0.351131 0.679834 0.633832 0.000000
H 0.349267 0.647617 0.629991 0.000000
H 0.378575 0.662028 0.632206 0.000000
C 0.395250 0.649049 0.570765 0.000000
H 0.402062 0.667025 0.566914 0.000000
C 0.514670 0.437483 0.354476 0.000000
C 0.513347 0.427472 0.330778 0.000000
C 0.533577 0.416274 0.320472 0.000000
H 0.532651 0.408705 0.302341 0.000000
C 0.555157 0.414946 0.333861 0.000000
H 0.570853 0.406189 0.325847 0.000000
C 0.556752 0.424676 0.357496 0.000000
C 0.536207 0.436185 0.367836 0.000000
H 0.536625 0.444191 0.385750 0.000000
N 0.579592 0.422363 0.369977 0.000000
C 0.584481 0.428391 0.392294 0.000000
H 0.570544 0.435848 0.403898 0.000000
C 0.609062 0.424173 0.402593 0.000000
C 0.627937 0.415368 0.387728 0.000000
H 0.624018 0.412141 0.368781 0.000000
C 0.651446 0.411121 0.397014 0.000000
C 0.672679 0.401927 0.381069 0.000000
C 0.665434 0.397637 0.354225 0.000000
H 0.681224 0.390929 0.343533 0.000000
H 0.650870 0.383709 0.352817 0.000000
H 0.659174 0.414783 0.345597 0.000000
C 0.693390 0.420861 0.381339 0.000000
H 0.700820 0.423447 0.399915 0.000000
H 0.708637 0.414983 0.369473 0.000000
H 0.686659 0.438694 0.374684 0.000000
C 0.682206 0.377531 0.391215 0.000000
H 0.690101 0.379657 0.409649 0.000000
H 0.667222 0.364017 0.392237 0.000000
H 0.696737 0.370009 0.379362 0.000000
C 0.655313 0.415260 0.421968 0.000000
H 0.672996 0.411585 0.429789 0.000000
C 0.636674 0.423370 0.437347 0.000000
C 0.613619 0.429021 0.427319 0.000000
O 0.595233 0.440011 0.441090 0.000000
H 0.601320 0.450044 0.455219 0.000000
C 0.642065 0.424133 0.463753 0.000000
H 0.660933 0.424623 0.469454 0.000000
N 0.624962 0.422670 0.479962 0.000000
C 0.629257 0.421414 0.505654 0.000000
C 0.649052 0.408139 0.515316 0.000000
H 0.661231 0.398326 0.503410 0.000000
C 0.653209 0.407396 0.540441 0.000000
H 0.668603 0.397519 0.547639 0.000000
C 0.637604 0.419995 0.555917 0.000000
C 0.617576 0.433120 0.546350 0.000000
C 0.613212 0.433487 0.521387 0.000000
H 0.598072 0.443787 0.514142 0.000000
C 0.603410 0.447641 0.565297 0.000000
H 0.587783 0.458018 0.557779 0.000000
C 0.596499 0.429083 0.584721 0.000000
C 0.573147 0.425511 0.593896 0.000000
H 0.558106 0.436050 0.586844 0.000000
C 0.569385 0.408704 0.612750 0.000000
N 0.545195 0.406555 0.622416 0.000000
C 0.538707 0.395672 0.642337 0.000000
H 0.552122 0.387093 0.653833 0.000000
C 0.589258 0.394973 0.621685 0.000000
H 0.586877 0.381450 0.635680 0.000000
C 0.612746 0.398594 0.612482 0.000000
H 0.627873 0.388288 0.619671 0.000000
C 0.616397 0.415772 0.594232 0.000000
C 0.640978 0.422732 0.583359 0.000000
H 0.656629 0.412393 0.590879 0.000000
C 0.642630 0.450194 0.587139 0.000000
C 0.662097 0.462362 0.597810 0.000000
H 0.677384 0.452347 0.605050 0.000000
C 0.661980 0.487815 0.598371 0.000000
H 0.677396 0.497273 0.606134 0.000000
C 0.642563 0.501200 0.588445 0.000000
C 0.622654 0.488781 0.578001 0.000000
H 0.607741 0.498312 0.569518 0.000000
C 0.622736 0.463439 0.577438 0.000000
N 0.644880 0.527207 0.587646 0.000000
C 0.628042 0.542822 0.582130 0.000000
H 0.609743 0.536857 0.578325 0.000000
C 0.633930 0.569056 0.580004 0.000000
C 0.616554 0.585395 0.570770 0.000000
O 0.593040 0.576769 0.566153 0.000000
H 0.579904 0.589599 0.566743 0.000000
C 0.623034 0.610059 0.567033 0.000000
C 0.645994 0.618216 0.574498 0.000000
H 0.650521 0.637188 0.571813 0.000000
C 0.663318 0.602366 0.584696 0.000000
C 0.688340 0.612362 0.592548 0.000000
C 0.705186 0.592724 0.603673 0.000000
H 0.696756 0.584449 0.620064 0.000000
H 0.709241 0.578230 0.590185 0.000000
H 0.722825 0.600773 0.609340 0.000000
C 0.701530 0.623187 0.570267 0.000000
H 0.719967 0.629693 0.575297 0.000000
H 0.703484 0.609191 0.555802 0.000000
H 0.691479 0.638879 0.562565 0.000000
C 0.684745 0.632337 0.611942 0.000000
H 0.674523 0.648092 0.604580 0.000000
H 0.674535 0.625002 0.627747 0.000000
H 0.702548 0.639263 0.618532 0.000000
C 0.656979 0.577639 0.586960 0.000000
H 0.669779 0.564734 0.594315 0.000000
C 0.471856 0.429558 0.360108 0.000000
C 0.470638 0.419536 0.336388 0.000000
C 0.454230 0.400998 0.331111 0.000000
H 0.453303 0.393293 0.313034 0.000000
C 0.439029 0.392297 0.349552 0.000000
H 0.426448 0.377731 0.345503 0.000000
C 0.439882 0.402184 0.373135 0.000000
C 0.456566 0.420955 0.378477 0.000000
H 0.458218 0.428393 0.396573 0.000000
N 0.424250 0.391803 0.391251 0.000000
C 0.417510 0.401953 0.411494 0.000000
H 0.422872 0.420416 0.415615 0.000000
C 0.401433 0.388733 0.428610 0.000000
C 0.397697 0.363606 0.425748 0.000000
H 0.407154 0.354478 0.411206 0.000000
C 0.382124 0.350505 0.441294 0.000000
C 0.377684 0.322909 0.438654 0.000000
C 0.391279 0.311503 0.416788 0.000000
H 0.387274 0.291742 0.415382 0.000000
H 0.385488 0.320085 0.399437 0.000000
H 0.411263 0.313444 0.418901 0.000000
C 0.386475 0.309821 0.461878 0.000000
H 0.384222 0.289822 0.460157 0.000000
H 0.406018 0.313756 0.465171 0.000000
H 0.376030 0.315700 0.478106 0.000000
C 0.350268 0.318092 0.435000 0.000000
H 0.343472 0.328142 0.418859 0.000000
H 0.346747 0.298399 0.432165 0.000000
H 0.339486 0.323838 0.451048 0.000000
C 0.370622 0.363371 0.460191 0.000000
H 0.358917 0.353760 0.472746 0.000000
C 0.374421 0.388316 0.463806 0.000000
C 0.389518 0.401309 0.447453 0.000000
O 0.392203 0.426615 0.448669 0.000000
H 0.378957 0.435391 0.457903 0.000000
C 0.362775 0.399429 0.485365 0.000000
H 0.346484 0.390907 0.492272 0.000000
N 0.373476 0.416590 0.497559 0.000000
C 0.364961 0.427444 0.519776 0.000000
C 0.341177 0.423572 0.528962 0.000000
H 0.327962 0.412958 0.519101 0.000000
C 0.334048 0.433529 0.551305 0.000000
H 0.315997 0.430178 0.558337 0.000000
C 0.350542 0.447540 0.564440 0.000000
C 0.374078 0.452153 0.555016 0.000000
C 0.381211 0.442189 0.532832 0.000000
H 0.399395 0.445378 0.525993 0.000000
C 0.390244 0.467324 0.571709 0.000000
H 0.408691 0.470976 0.564297 0.000000
C 0.375359 0.490143 0.577036 0.000000
C 0.383200 0.514013 0.573445 0.000000
H 0.401206 0.517473 0.566295 0.000000
C 0.367722 0.533441 0.579392 0.000000
N 0.376507 0.557769 0.575498 0.000000
C 0.367260 0.577557 0.584472 0.000000
H 0.351818 0.576690 0.596574 0.000000
C 0.344097 0.528541 0.588406 0.000000
H 0.331430 0.543010 0.592370 0.000000
C 0.336219 0.504588 0.592013 0.000000
H 0.318156 0.501034 0.598930 0.000000
C 0.351851 0.485442 0.586474 0.000000
C 0.345948 0.458495 0.589549 0.000000
H 0.327520 0.454813 0.596971 0.000000
C 0.366715 0.448631 0.605158 0.000000
C 0.364015 0.435715 0.626807 0.000000
H 0.346143 0.432203 0.634204 0.000000
C 0.384806 0.427074 0.638777 0.000000
H 0.382728 0.416865 0.655474 0.000000
C 0.408161 0.431003 0.629108 0.000000
C 0.410839 0.444658 0.607520 0.000000
H 0.428562 0.448727 0.600069 0.000000
C 0.390209 0.453270 0.595629 0.000000
N 0.428805 0.421347 0.641901 0.000000
C 0.449520 0.416015 0.631884 0.000000
H 0.451608 0.417488 0.612419 0.000000
C 0.470088 0.406519 0.646499 0.000000
C 0.494176 0.407217 0.637472 0.000000
O 0.499983 0.419563 0.615961 0.000000
H 0.487931 0.432366 0.610672 0.000000
C 0.513005 0.395728 0.650662 0.000000
C 0.507716 0.384592 0.672953 0.000000
H 0.522387 0.375994 0.682845 0.000000
C 0.484124 0.384659 0.682858 0.000000
C 0.479626 0.372680 0.707858 0.000000
C 0.452936 0.374743 0.716512 0.000000
H 0.440461 0.365212 0.703783 0.000000
H 0.450602 0.366243 0.734703 0.000000
H 0.447385 0.394095 0.718108 0.000000
C 0.486026 0.345389 0.706433 0.000000
H 0.475070 0.336345 0.692078 0.000000
H 0.505550 0.342543 0.702228 0.000000
H 0.482229 0.336201 0.724034 0.000000
C 0.495735 0.385036 0.727256 0.000000
H 0.515372 0.382413 0.723425 0.000000
H 0.491991 0.404865 0.727896 0.000000
H 0.492152 0.377291 0.745564 0.000000
C 0.465432 0.395653 0.669169 0.000000
H 0.446935 0.395526 0.675678 0.000000
C 0.491096 0.449392 0.363077 0.000000
H 0.492057 0.457298 0.381661 0.000000
C 0.488689 0.430468 0.318421 0.000000
H 0.487695 0.422585 0.299831 0.000000
