data_MC2_PM
_symmetry_space_group_name_H-M   'P 1'
_cell_length_a 52.387721
_cell_length_b 52.387721
_cell_length_c 52.387721
_cell_angle_alpha 90.000000
_cell_angle_beta 90.000000
_cell_angle_gamma 90.000000
_symmetry_Int_Tables_number 1

loop_
_symmetry_equiv_pos_as_xyz
 'x, y, z'

loop_
_atom_site_label
_atom_site_fract_x
_atom_site_fract_y
_atom_site_fract_z
_atom_site_charge
O 0.466510 0.385418 0.414876 0.000000
H 0.448919 0.393228 0.413686 0.000000
C 0.467397 0.359001 0.410872 0.000000
C 0.445430 0.343315 0.413555 0.000000
C 0.446862 0.317440 0.406821 0.000000
H 0.430127 0.305406 0.408584 0.000000
C 0.469800 0.306679 0.398450 0.000000
C 0.491665 0.321908 0.396819 0.000000
H 0.509448 0.313337 0.390643 0.000000
C 0.490734 0.348014 0.403032 0.000000
C 0.470753 0.278849 0.391732 0.000000
H 0.465958 0.267238 0.408799 0.000000
H 0.489990 0.273116 0.384890 0.000000
H 0.456716 0.274753 0.376384 0.000000
C 0.420839 0.352600 0.423875 0.000000
H 0.403562 0.343463 0.417185 0.000000
C 0.514123 0.363874 0.401519 0.000000
H 0.512931 0.383791 0.406734 0.000000
N 0.419985 0.369947 0.441587 0.000000
N 0.535765 0.353932 0.394512 0.000000
O 0.413453 0.471588 0.611121 0.000000
H 0.400401 0.477230 0.598073 0.000000
C 0.403070 0.460423 0.633094 0.000000
C 0.417103 0.461980 0.656069 0.000000
C 0.406165 0.453009 0.678875 0.000000
H 0.416674 0.454275 0.696638 0.000000
C 0.381544 0.442660 0.679080 0.000000
C 0.367993 0.440455 0.656204 0.000000
H 0.349205 0.431767 0.656462 0.000000
C 0.378656 0.448569 0.633006 0.000000
C 0.369679 0.433563 0.703527 0.000000
H 0.382773 0.436150 0.720007 0.000000
H 0.364932 0.412981 0.701913 0.000000
H 0.351948 0.444524 0.707299 0.000000
C 0.442984 0.473389 0.656204 0.000000
H 0.451016 0.479894 0.638378 0.000000
C 0.364046 0.443050 0.609444 0.000000
H 0.343619 0.440301 0.611074 0.000000
N 0.455700 0.475737 0.677411 0.000000
N 0.375416 0.439847 0.587624 0.000000
O 0.621070 0.438745 0.548177 0.000000
H 0.619530 0.455394 0.557768 0.000000
C 0.625501 0.417131 0.563310 0.000000
C 0.635547 0.394937 0.551567 0.000000
C 0.641894 0.373714 0.566615 0.000000
H 0.649729 0.356769 0.557699 0.000000
C 0.638235 0.374020 0.593030 0.000000
C 0.627772 0.395655 0.604592 0.000000
H 0.624466 0.395323 0.625015 0.000000
C 0.620967 0.417210 0.590093 0.000000
C 0.645051 0.351263 0.609048 0.000000
H 0.652487 0.335313 0.597210 0.000000
H 0.627891 0.344411 0.619427 0.000000
H 0.659956 0.356677 0.623115 0.000000
C 0.640190 0.392930 0.523706 0.000000
H 0.650209 0.376226 0.516823 0.000000
C 0.607981 0.438804 0.603049 0.000000
H 0.596700 0.451945 0.591915 0.000000
N 0.630979 0.409373 0.507553 0.000000
N 0.609761 0.441549 0.627651 0.000000
O 0.581894 0.561198 0.395687 0.000000
H 0.580852 0.577678 0.405639 0.000000
C 0.588245 0.564017 0.369861 0.000000
C 0.584874 0.587523 0.356679 0.000000
C 0.594026 0.589967 0.331635 0.000000
H 0.591708 0.607918 0.321592 0.000000
C 0.605442 0.569325 0.319131 0.000000
C 0.607899 0.546004 0.331793 0.000000
H 0.616587 0.530109 0.321796 0.000000
C 0.599442 0.543086 0.357104 0.000000
C 0.614848 0.571888 0.292192 0.000000
H 0.604913 0.557866 0.279807 0.000000
H 0.635698 0.568126 0.291577 0.000000
H 0.611313 0.591331 0.284477 0.000000
C 0.571226 0.609711 0.367591 0.000000
H 0.576362 0.628541 0.360834 0.000000
C 0.602838 0.518319 0.370407 0.000000
H 0.594336 0.515661 0.389017 0.000000
N 0.552375 0.606615 0.383404 0.000000
N 0.616664 0.500432 0.360214 0.000000
O 0.532889 0.618467 0.582109 0.000000
H 0.518185 0.619285 0.569652 0.000000
C 0.546425 0.641294 0.585472 0.000000
C 0.544647 0.661628 0.567584 0.000000
C 0.557226 0.684791 0.572741 0.000000
H 0.556056 0.700441 0.559270 0.000000
C 0.572010 0.687763 0.594759 0.000000
C 0.574451 0.667448 0.611806 0.000000
H 0.586197 0.669864 0.628682 0.000000
C 0.561877 0.644198 0.607514 0.000000
C 0.585642 0.712429 0.600034 0.000000
H 0.606512 0.708925 0.601187 0.000000
H 0.578941 0.720453 0.618475 0.000000
H 0.582087 0.726757 0.584830 0.000000
C 0.531357 0.658516 0.542772 0.000000
H 0.528914 0.639573 0.535140 0.000000
C 0.565284 0.623711 0.626782 0.000000
H 0.577873 0.627463 0.642708 0.000000
N 0.524374 0.678430 0.529720 0.000000
N 0.554172 0.601666 0.624513 0.000000
O 0.374322 0.571416 0.456353 0.000000
H 0.379595 0.588589 0.463388 0.000000
C 0.358713 0.572507 0.434663 0.000000
C 0.343391 0.551124 0.428798 0.000000
C 0.326071 0.552437 0.408308 0.000000
H 0.314238 0.536129 0.403658 0.000000
C 0.323896 0.574675 0.393690 0.000000
C 0.339432 0.595649 0.399206 0.000000
H 0.338114 0.612575 0.387355 0.000000
C 0.357271 0.594695 0.419120 0.000000
C 0.305506 0.576061 0.371745 0.000000
H 0.294540 0.558055 0.369583 0.000000
H 0.316158 0.579599 0.353760 0.000000
H 0.291825 0.591925 0.374913 0.000000
C 0.345440 0.527490 0.444229 0.000000
H 0.359792 0.526372 0.459014 0.000000
C 0.374891 0.616589 0.421774 0.000000
H 0.368156 0.635170 0.415877 0.000000
N 0.329822 0.508558 0.440535 0.000000
N 0.398505 0.613045 0.428424 0.000000
C 0.363633 0.431970 0.517985 0.000000
C 0.374884 0.439236 0.541034 0.000000
H 0.392431 0.450159 0.540989 0.000000
C 0.363150 0.432528 0.564219 0.000000
C 0.340378 0.417961 0.563932 0.000000
H 0.331492 0.411824 0.581502 0.000000
C 0.329176 0.410505 0.540826 0.000000
H 0.311804 0.399306 0.540801 0.000000
C 0.340734 0.417541 0.517906 0.000000
C 0.330799 0.410959 0.491303 0.000000
H 0.312881 0.399578 0.491256 0.000000
C 0.328636 0.436702 0.477828 0.000000
C 0.306898 0.445818 0.465522 0.000000
H 0.289548 0.434609 0.465139 0.000000
C 0.307803 0.469636 0.453417 0.000000
H 0.290942 0.476653 0.443729 0.000000
C 0.330166 0.484530 0.453752 0.000000
C 0.352312 0.475084 0.465940 0.000000
H 0.370075 0.485585 0.465726 0.000000
C 0.351453 0.451284 0.477930 0.000000
C 0.373866 0.438278 0.491384 0.000000
H 0.391784 0.449658 0.491430 0.000000
C 0.376133 0.412374 0.478122 0.000000
C 0.398041 0.402932 0.466176 0.000000
H 0.415395 0.414154 0.466026 0.000000
C 0.397213 0.379045 0.453954 0.000000
C 0.374406 0.364502 0.454621 0.000000
H 0.373479 0.345681 0.446259 0.000000
C 0.352476 0.373972 0.466592 0.000000
H 0.335094 0.362795 0.466786 0.000000
C 0.353284 0.397891 0.478164 0.000000
C 0.549002 0.535723 0.650364 0.000000
C 0.547860 0.556527 0.633756 0.000000
H 0.540927 0.553949 0.614445 0.000000
C 0.555842 0.580700 0.642155 0.000000
C 0.564473 0.583779 0.667611 0.000000
H 0.569958 0.602267 0.674940 0.000000
C 0.565569 0.562924 0.684325 0.000000
H 0.572139 0.565472 0.703739 0.000000
C 0.557905 0.538944 0.675718 0.000000
C 0.557781 0.514535 0.691653 0.000000
H 0.564732 0.517044 0.711535 0.000000
C 0.530358 0.504790 0.689713 0.000000
C 0.514619 0.498861 0.710302 0.000000
H 0.521318 0.501290 0.729694 0.000000
C 0.490024 0.489484 0.705627 0.000000
H 0.477856 0.484736 0.721651 0.000000
C 0.480964 0.486031 0.680547 0.000000
C 0.496998 0.492080 0.659677 0.000000
H 0.491091 0.489306 0.640148 0.000000
C 0.521497 0.501492 0.664347 0.000000
C 0.541046 0.508441 0.643848 0.000000
H 0.534110 0.505922 0.623961 0.000000
C 0.564400 0.492278 0.650500 0.000000
C 0.576243 0.474888 0.634125 0.000000
H 0.568563 0.472327 0.615169 0.000000
C 0.597287 0.460555 0.643045 0.000000
C 0.605784 0.463835 0.668333 0.000000
H 0.621654 0.452602 0.675374 0.000000
C 0.593938 0.481300 0.684770 0.000000
H 0.600598 0.483501 0.704207 0.000000
C 0.573256 0.495497 0.675860 0.000000
C 0.589291 0.400429 0.405557 0.000000
C 0.564603 0.390435 0.405272 0.000000
H 0.549652 0.400927 0.414791 0.000000
C 0.560159 0.366455 0.393691 0.000000
C 0.580673 0.353230 0.382369 0.000000
H 0.577402 0.334758 0.373686 0.000000
C 0.605451 0.363240 0.382687 0.000000
H 0.621087 0.352622 0.374329 0.000000
C 0.609810 0.386678 0.394506 0.000000
C 0.635933 0.399065 0.398252 0.000000
H 0.652007 0.388177 0.389675 0.000000
C 0.632709 0.426004 0.387683 0.000000
C 0.647534 0.436736 0.368387 0.000000
H 0.663068 0.426091 0.359911 0.000000
C 0.641880 0.461417 0.359863 0.000000
H 0.653275 0.469676 0.344721 0.000000
C 0.621675 0.475533 0.370567 0.000000
C 0.606589 0.464553 0.390063 0.000000
H 0.590427 0.474485 0.398152 0.000000
C 0.612203 0.439885 0.398582 0.000000
C 0.597266 0.425134 0.418883 0.000000
H 0.581147 0.435955 0.427450 0.000000
C 0.617398 0.416438 0.438116 0.000000
C 0.615647 0.419204 0.464587 0.000000
H 0.599478 0.429003 0.472925 0.000000
C 0.634242 0.407945 0.480315 0.000000
C 0.655275 0.395192 0.469080 0.000000
H 0.670302 0.387202 0.480747 0.000000
C 0.657064 0.392441 0.442550 0.000000
H 0.672827 0.382014 0.434209 0.000000
C 0.637971 0.402676 0.427111 0.000000
C 0.506043 0.639306 0.426004 0.000000
C 0.522244 0.620855 0.415776 0.000000
H 0.523737 0.602272 0.424722 0.000000
C 0.536530 0.626450 0.393796 0.000000
C 0.534038 0.650708 0.382085 0.000000
H 0.544185 0.655311 0.364719 0.000000
C 0.517684 0.669248 0.392317 0.000000
H 0.515747 0.687664 0.383126 0.000000
C 0.503632 0.663556 0.414195 0.000000
C 0.484559 0.681396 0.427214 0.000000
H 0.482636 0.700368 0.417898 0.000000
C 0.493546 0.682506 0.454911 0.000000
C 0.499871 0.704694 0.468142 0.000000
H 0.497867 0.723187 0.459179 0.000000
C 0.509416 0.702724 0.493030 0.000000
H 0.514744 0.719981 0.503120 0.000000
C 0.512847 0.678799 0.504799 0.000000
C 0.505736 0.656349 0.491546 0.000000
H 0.507816 0.637608 0.499843 0.000000
C 0.496186 0.658309 0.466741 0.000000
C 0.489236 0.635780 0.449543 0.000000
H 0.491202 0.616784 0.458819 0.000000
C 0.462355 0.641715 0.439941 0.000000
C 0.441799 0.624781 0.440416 0.000000
H 0.444071 0.606015 0.448776 0.000000
C 0.418465 0.631877 0.429262 0.000000
C 0.416013 0.656317 0.417902 0.000000
H 0.398575 0.662226 0.408648 0.000000
C 0.436673 0.673316 0.417401 0.000000
H 0.434800 0.691681 0.408146 0.000000
C 0.459850 0.665940 0.428182 0.000000
