data_MC3_PM
_symmetry_space_group_name_H-M   'P 1'
_cell_length_a 47.525457
_cell_length_b 47.525457
_cell_length_c 47.525457
_cell_angle_alpha 90.000000
_cell_angle_beta 90.000000
_cell_angle_gamma 90.000000
_symmetry_Int_Tables_number 1

loop_
_symmetry_equiv_pos_as_xyz
 'x, y, z'

loop_
_atom_site_label
_atom_site_fract_x
_atom_site_fract_y
_atom_site_fract_z
_atom_site_charge
O 0.476929 0.332318 0.400605 0.000000
H 0.493419 0.342795 0.392238 0.000000
N 0.487061 0.391596 0.403903 0.000000
O 0.460021 0.338618 0.608624 0.000000
H 0.448578 0.354593 0.616755 0.000000
N 0.471159 0.397837 0.603094 0.000000
O 0.370468 0.591447 0.383168 0.000000
H 0.388469 0.594058 0.372149 0.000000
N 0.422289 0.561281 0.390285 0.000000
O 0.389291 0.633525 0.586918 0.000000
H 0.407089 0.626835 0.596424 0.000000
N 0.416150 0.577040 0.589369 0.000000
N 0.605702 0.536538 0.406066 0.000000
O 0.650407 0.538843 0.613388 0.000000
H 0.669648 0.537854 0.622513 0.000000
N 0.594319 0.532740 0.606982 0.000000
C 0.493880 0.386016 0.429776 0.000000
H 0.506091 0.400968 0.441880 0.000000
C 0.483529 0.360319 0.444116 0.000000
C 0.473497 0.336199 0.429561 0.000000
C 0.460389 0.314617 0.444638 0.000000
H 0.452200 0.296454 0.433591 0.000000
C 0.458317 0.315800 0.473883 0.000000
H 0.447819 0.298757 0.484741 0.000000
C 0.469649 0.338602 0.488873 0.000000
C 0.482195 0.360750 0.473676 0.000000
H 0.490825 0.378631 0.484857 0.000000
C 0.462047 0.393906 0.577614 0.000000
H 0.455495 0.411693 0.564963 0.000000
C 0.462806 0.365783 0.564205 0.000000
C 0.464186 0.340187 0.579550 0.000000
C 0.468978 0.314967 0.565182 0.000000
H 0.470602 0.295439 0.576819 0.000000
C 0.471078 0.314492 0.535909 0.000000
H 0.475064 0.294579 0.525624 0.000000
C 0.468096 0.339334 0.520191 0.000000
C 0.463920 0.364850 0.534652 0.000000
H 0.461805 0.384247 0.522882 0.000000
C 0.424239 0.575753 0.413404 0.000000
H 0.444099 0.576526 0.424603 0.000000
C 0.399377 0.589303 0.426530 0.000000
C 0.373555 0.594183 0.412298 0.000000
C 0.350057 0.603020 0.427643 0.000000
H 0.330157 0.606245 0.417006 0.000000
C 0.351991 0.608363 0.456452 0.000000
H 0.333203 0.614850 0.467595 0.000000
C 0.377747 0.605307 0.470611 0.000000
C 0.401283 0.595872 0.455300 0.000000
H 0.421311 0.593304 0.465862 0.000000
C 0.421114 0.584124 0.563418 0.000000
H 0.439344 0.576100 0.552417 0.000000
C 0.401390 0.601900 0.547266 0.000000
C 0.385893 0.624476 0.559111 0.000000
C 0.367129 0.639537 0.542153 0.000000
H 0.355225 0.656816 0.551037 0.000000
C 0.364365 0.633366 0.513571 0.000000
H 0.350417 0.646244 0.500974 0.000000
C 0.380084 0.611552 0.501281 0.000000
C 0.398282 0.595832 0.518514 0.000000
H 0.409808 0.578238 0.509702 0.000000
O 0.653780 0.566710 0.406240 0.000000
H 0.669168 0.579753 0.399310 0.000000
C 0.610814 0.530955 0.432336 0.000000
H 0.597753 0.516063 0.443602 0.000000
C 0.633622 0.545078 0.448178 0.000000
C 0.653822 0.562734 0.435396 0.000000
C 0.674088 0.576205 0.452235 0.000000
H 0.689655 0.589857 0.442755 0.000000
C 0.674202 0.572560 0.481406 0.000000
H 0.689595 0.583825 0.493852 0.000000
C 0.654225 0.555083 0.494372 0.000000
C 0.634404 0.541099 0.477439 0.000000
H 0.619244 0.527115 0.487114 0.000000
C 0.597788 0.541364 0.581249 0.000000
H 0.579704 0.545441 0.568033 0.000000
C 0.626059 0.545008 0.568639 0.000000
C 0.651253 0.543136 0.584300 0.000000
C 0.677222 0.545736 0.570378 0.000000
H 0.696715 0.544280 0.582061 0.000000
C 0.678319 0.549816 0.541283 0.000000
H 0.698677 0.550989 0.531091 0.000000
C 0.653444 0.551703 0.525481 0.000000
C 0.627483 0.549761 0.539521 0.000000
H 0.608122 0.551741 0.527665 0.000000
C 0.511170 0.493695 0.343016 0.000000
H 0.512971 0.492461 0.319727 0.000000
C 0.506804 0.496627 0.398986 0.000000
H 0.504984 0.497841 0.422283 0.000000
C 0.487137 0.505336 0.657043 0.000000
H 0.485120 0.506497 0.680318 0.000000
C 0.491978 0.502508 0.601105 0.000000
H 0.494015 0.501326 0.577832 0.000000
C 0.494096 0.416873 0.388933 0.000000
C 0.495821 0.415690 0.359369 0.000000
H 0.492633 0.395866 0.348641 0.000000
C 0.501787 0.439836 0.343509 0.000000
H 0.503124 0.438630 0.320811 0.000000
C 0.505540 0.465444 0.357329 0.000000
C 0.503313 0.466983 0.387058 0.000000
C 0.497679 0.442872 0.402857 0.000000
H 0.495396 0.444634 0.425430 0.000000
C 0.444889 0.545170 0.378393 0.000000
C 0.446736 0.542735 0.348926 0.000000
H 0.431635 0.553524 0.335693 0.000000
C 0.468084 0.526732 0.336346 0.000000
H 0.469416 0.525158 0.313654 0.000000
C 0.487307 0.512577 0.353423 0.000000
C 0.485122 0.514263 0.383130 0.000000
C 0.464169 0.530576 0.395615 0.000000
H 0.462484 0.531256 0.418323 0.000000
C 0.582406 0.525317 0.390341 0.000000
C 0.584368 0.524227 0.360782 0.000000
H 0.603419 0.531257 0.350446 0.000000
C 0.562036 0.513976 0.344423 0.000000
H 0.563870 0.513109 0.321739 0.000000
C 0.537424 0.505054 0.357743 0.000000
C 0.535064 0.506539 0.387440 0.000000
C 0.557268 0.516690 0.403668 0.000000
H 0.554528 0.518364 0.426182 0.000000
C 0.473998 0.424777 0.616503 0.000000
C 0.472125 0.426253 0.646039 0.000000
H 0.467771 0.407387 0.658044 0.000000
C 0.475700 0.451884 0.660232 0.000000
H 0.474145 0.452762 0.682935 0.000000
C 0.481703 0.476081 0.644748 0.000000
C 0.484192 0.474666 0.615058 0.000000
C 0.480311 0.449259 0.600922 0.000000
H 0.483058 0.448525 0.578348 0.000000
C 0.433493 0.558742 0.606153 0.000000
C 0.430601 0.559664 0.635635 0.000000
H 0.415493 0.573888 0.645058 0.000000
C 0.447332 0.542769 0.653149 0.000000
H 0.445090 0.543939 0.675777 0.000000
C 0.466968 0.524631 0.641019 0.000000
C 0.469629 0.523116 0.611349 0.000000
C 0.452959 0.539831 0.593980 0.000000
H 0.455178 0.537686 0.571446 0.000000
C 0.567480 0.526500 0.619493 0.000000
C 0.564934 0.527436 0.649005 0.000000
H 0.582899 0.533340 0.661736 0.000000
C 0.539358 0.521001 0.662291 0.000000
H 0.537653 0.521958 0.684976 0.000000
C 0.516276 0.513263 0.645901 0.000000
C 0.518764 0.511761 0.616211 0.000000
C 0.544146 0.518179 0.603047 0.000000
H 0.545652 0.516046 0.580446 0.000000
