data_MC4_PM
_symmetry_space_group_name_H-M   'P 1'
_cell_length_a 48.352531
_cell_length_b 48.352531
_cell_length_c 48.352531
_cell_angle_alpha 90.000000
_cell_angle_beta 90.000000
_cell_angle_gamma 90.000000
_symmetry_Int_Tables_number 1

loop_
_symmetry_equiv_pos_as_xyz
 'x, y, z'

loop_
_atom_site_label
_atom_site_fract_x
_atom_site_fract_y
_atom_site_fract_z
_atom_site_charge
O 0.606944 0.376322 0.627750 0.000000
H 0.588788 0.380004 0.637393 0.000000
O 0.608588 0.375174 0.378509 0.000000
H 0.589299 0.379725 0.371806 0.000000
N 0.570542 0.423428 0.621627 0.000000
N 0.578962 0.427103 0.384341 0.000000
C 0.565315 0.412006 0.597890 0.000000
H 0.546602 0.417284 0.586744 0.000000
C 0.585127 0.392953 0.584411 0.000000
C 0.605714 0.377758 0.598876 0.000000
C 0.625200 0.362421 0.583960 0.000000
H 0.641108 0.351020 0.594843 0.000000
C 0.623804 0.360761 0.555183 0.000000
H 0.638788 0.348238 0.544177 0.000000
C 0.602857 0.374588 0.540723 0.000000
C 0.583715 0.390671 0.555455 0.000000
H 0.567876 0.401877 0.544217 0.000000
C 0.600635 0.371868 0.509757 0.000000
H 0.580490 0.380251 0.502520 0.000000
H 0.601117 0.349572 0.504097 0.000000
C 0.575728 0.417762 0.409325 0.000000
H 0.558311 0.424249 0.421814 0.000000
C 0.596478 0.399249 0.422047 0.000000
C 0.613046 0.380612 0.406573 0.000000
C 0.634128 0.365886 0.419857 0.000000
H 0.647033 0.351876 0.408100 0.000000
C 0.638039 0.368223 0.448363 0.000000
H 0.654158 0.356178 0.458181 0.000000
C 0.620825 0.385396 0.464125 0.000000
C 0.600262 0.400945 0.450805 0.000000
H 0.587466 0.414834 0.462914 0.000000
C 0.624246 0.387158 0.495051 0.000000
H 0.644347 0.377957 0.501380 0.000000
H 0.624476 0.409263 0.501423 0.000000
C 0.519232 0.481462 0.662829 0.000000
C 0.536055 0.463666 0.678060 0.000000
H 0.535957 0.464300 0.700437 0.000000
C 0.553088 0.444860 0.664040 0.000000
H 0.566112 0.430964 0.675832 0.000000
C 0.553050 0.443406 0.634940 0.000000
C 0.536453 0.461873 0.619582 0.000000
H 0.536730 0.461922 0.597222 0.000000
C 0.519705 0.480751 0.633526 0.000000
C 0.524840 0.480889 0.369602 0.000000
C 0.542406 0.463589 0.384610 0.000000
H 0.541808 0.464257 0.406937 0.000000
C 0.560728 0.445877 0.370264 0.000000
C 0.561593 0.446595 0.341164 0.000000
H 0.575825 0.433288 0.330128 0.000000
C 0.543865 0.463859 0.326090 0.000000
H 0.544475 0.463901 0.303716 0.000000
C 0.525372 0.480829 0.340273 0.000000
O 0.346096 0.459575 0.621319 0.000000
H 0.328963 0.451113 0.629935 0.000000
O 0.350903 0.453051 0.372144 0.000000
H 0.333780 0.447042 0.361634 0.000000
N 0.398100 0.478055 0.616830 0.000000
N 0.403031 0.468452 0.381185 0.000000
C 0.393131 0.482590 0.590790 0.000000
H 0.408314 0.492868 0.577977 0.000000
C 0.366841 0.474016 0.577598 0.000000
C 0.344443 0.462690 0.592597 0.000000
C 0.320341 0.454670 0.578464 0.000000
H 0.302990 0.445990 0.589679 0.000000
C 0.318407 0.457672 0.549818 0.000000
H 0.299658 0.451290 0.539353 0.000000
C 0.340489 0.468843 0.534748 0.000000
C 0.364507 0.477106 0.548781 0.000000
H 0.381651 0.485649 0.537126 0.000000
C 0.338591 0.471749 0.503762 0.000000
H 0.355736 0.485037 0.496098 0.000000
H 0.318907 0.482225 0.498213 0.000000
C 0.398038 0.467159 0.407571 0.000000
H 0.413731 0.472665 0.422493 0.000000
C 0.370898 0.457720 0.418304 0.000000
C 0.348409 0.450843 0.400893 0.000000
C 0.323440 0.441731 0.412645 0.000000
H 0.306072 0.436392 0.399559 0.000000
C 0.320625 0.439430 0.441283 0.000000
H 0.301174 0.432315 0.449804 0.000000
C 0.342723 0.446267 0.458728 0.000000
C 0.367714 0.455337 0.447121 0.000000
H 0.384858 0.460332 0.460672 0.000000
C 0.340026 0.443373 0.489652 0.000000
H 0.321133 0.431386 0.494976 0.000000
H 0.358076 0.431520 0.497585 0.000000
C 0.471535 0.496303 0.661484 0.000000
C 0.446938 0.490864 0.675514 0.000000
H 0.446318 0.491113 0.697895 0.000000
C 0.422977 0.484938 0.660290 0.000000
H 0.403897 0.480661 0.671237 0.000000
C 0.423325 0.484606 0.631159 0.000000
C 0.448387 0.489781 0.617049 0.000000
H 0.449850 0.488784 0.594771 0.000000
C 0.472203 0.495716 0.632167 0.000000
C 0.476220 0.492008 0.368762 0.000000
C 0.452325 0.484515 0.383071 0.000000
H 0.452832 0.484734 0.405388 0.000000
C 0.428419 0.476781 0.368058 0.000000
C 0.429207 0.476826 0.338922 0.000000
H 0.410995 0.470895 0.327338 0.000000
C 0.453226 0.484334 0.324553 0.000000
H 0.453504 0.484175 0.302169 0.000000
C 0.476719 0.491862 0.339431 0.000000
O 0.540239 0.656878 0.622566 0.000000
H 0.541466 0.675834 0.631433 0.000000
O 0.537159 0.656972 0.373494 0.000000
H 0.541029 0.674784 0.363123 0.000000
N 0.530389 0.602708 0.617324 0.000000
N 0.525227 0.603960 0.382206 0.000000
C 0.537210 0.604947 0.591425 0.000000
H 0.538707 0.586806 0.578445 0.000000
C 0.543128 0.632163 0.578622 0.000000
C 0.544245 0.657075 0.593925 0.000000
C 0.549529 0.682125 0.580154 0.000000
H 0.550450 0.701332 0.591586 0.000000
C 0.553609 0.682598 0.551582 0.000000
H 0.557548 0.702161 0.541373 0.000000
C 0.552580 0.658050 0.536247 0.000000
C 0.547511 0.632962 0.549897 0.000000
H 0.546575 0.613990 0.538014 0.000000
C 0.556600 0.658563 0.505337 0.000000
H 0.560167 0.637225 0.497560 0.000000
H 0.575375 0.670845 0.500245 0.000000
C 0.525393 0.608993 0.408612 0.000000
H 0.521699 0.592672 0.423405 0.000000
C 0.530189 0.637255 0.419480 0.000000
C 0.535711 0.660236 0.402193 0.000000
C 0.539716 0.686465 0.414079 0.000000
H 0.543936 0.704217 0.401106 0.000000
C 0.538365 0.690032 0.442682 0.000000
H 0.541547 0.710460 0.451306 0.000000
C 0.533054 0.667426 0.459981 0.000000
C 0.528941 0.641204 0.448259 0.000000
H 0.524575 0.623781 0.461692 0.000000
C 0.531291 0.671114 0.490876 0.000000
H 0.529875 0.693446 0.496230 0.000000
H 0.512056 0.661024 0.498468 0.000000
C 0.508250 0.530146 0.661560 0.000000
C 0.514973 0.554340 0.675706 0.000000
H 0.514396 0.554989 0.698075 0.000000
C 0.522362 0.577967 0.660597 0.000000
H 0.527446 0.596796 0.671600 0.000000
C 0.523238 0.577543 0.631473 0.000000
C 0.516157 0.553002 0.617230 0.000000
H 0.515669 0.551974 0.594917 0.000000
C 0.508883 0.529492 0.632261 0.000000
C 0.510108 0.528678 0.369075 0.000000
C 0.514989 0.553113 0.383649 0.000000
H 0.514314 0.552485 0.405947 0.000000
C 0.520435 0.577784 0.368858 0.000000
C 0.520995 0.577203 0.339746 0.000000
H 0.525140 0.595999 0.328325 0.000000
C 0.516102 0.552684 0.325129 0.000000
H 0.516473 0.552638 0.302749 0.000000
C 0.510592 0.528467 0.339762 0.000000
C 0.499391 0.502909 0.674951 0.000000
H 0.498903 0.503389 0.697918 0.000000
C 0.500558 0.501714 0.619706 0.000000
H 0.501067 0.501237 0.596719 0.000000
C 0.504453 0.500315 0.326866 0.000000
H 0.504825 0.500178 0.303863 0.000000
C 0.503543 0.500622 0.382097 0.000000
H 0.503174 0.500739 0.405099 0.000000
