data_MC5_PM
_symmetry_space_group_name_H-M   'P 1'
_cell_length_a 53.679710
_cell_length_b 53.679710
_cell_length_c 53.679710
_cell_angle_alpha 90.000000
_cell_angle_beta 90.000000
_cell_angle_gamma 90.000000
_symmetry_Int_Tables_number 1

loop_
_symmetry_equiv_pos_as_xyz
 'x, y, z'

loop_
_atom_site_label
_atom_site_fract_x
_atom_site_fract_y
_atom_site_fract_z
_atom_site_charge
O 0.425292 0.593288 0.547357 0.000000
O 0.579604 0.494186 0.602220 0.000000
N 0.590278 0.559863 0.640948 0.000000
N 0.458866 0.644963 0.593453 0.000000
N 0.589856 0.424701 0.633624 0.000000
N 0.349508 0.580129 0.546840 0.000000
C 0.564912 0.658228 0.605597 0.000000
H 0.571556 0.674562 0.616468 0.000000
C 0.548918 0.618975 0.579515 0.000000
H 0.542255 0.602652 0.568668 0.000000
C 0.564185 0.612233 0.602526 0.000000
C 0.572691 0.633030 0.616404 0.000000
C 0.586685 0.629467 0.637998 0.000000
H 0.593124 0.645268 0.648753 0.000000
C 0.592304 0.605125 0.645667 0.000000
H 0.603132 0.602383 0.662473 0.000000
C 0.584205 0.584343 0.631869 0.000000
C 0.569712 0.588052 0.610188 0.000000
H 0.562320 0.572655 0.599561 0.000000
C 0.528120 0.635613 0.589463 0.000000
C 0.536554 0.656463 0.603298 0.000000
C 0.519452 0.673074 0.613609 0.000000
H 0.525782 0.688954 0.624307 0.000000
C 0.493900 0.668936 0.610021 0.000000
H 0.480635 0.681792 0.618101 0.000000
C 0.485323 0.648418 0.596081 0.000000
C 0.502733 0.631449 0.585951 0.000000
H 0.496991 0.614977 0.575935 0.000000
C 0.565680 0.636663 0.564868 0.000000
C 0.574208 0.657483 0.578676 0.000000
C 0.589491 0.675238 0.567457 0.000000
H 0.595944 0.691263 0.577856 0.000000
C 0.596340 0.672153 0.542426 0.000000
H 0.608138 0.685990 0.533689 0.000000
C 0.588186 0.651384 0.528591 0.000000
C 0.572449 0.633623 0.539989 0.000000
H 0.565002 0.617923 0.529826 0.000000
C 0.337724 0.522833 0.508360 0.000000
C 0.311343 0.523036 0.507460 0.000000
C 0.298019 0.541870 0.519426 0.000000
H 0.277869 0.542048 0.518925 0.000000
C 0.311061 0.560550 0.532210 0.000000
H 0.300690 0.575129 0.541558 0.000000
C 0.337299 0.560679 0.533005 0.000000
C 0.350692 0.541366 0.521110 0.000000
H 0.370747 0.540192 0.522027 0.000000
C 0.448066 0.630801 0.577028 0.000000
H 0.458977 0.621080 0.563207 0.000000
C 0.420673 0.627488 0.576728 0.000000
C 0.409980 0.608797 0.561773 0.000000
C 0.432928 0.571301 0.560200 0.000000
H 0.443857 0.576110 0.577105 0.000000
H 0.416528 0.559860 0.565541 0.000000
H 0.444921 0.560062 0.547682 0.000000
C 0.383924 0.605742 0.561099 0.000000
C 0.372874 0.586231 0.544992 0.000000
H 0.384762 0.577057 0.531598 0.000000
C 0.368748 0.621126 0.575871 0.000000
H 0.348852 0.618334 0.575003 0.000000
C 0.379053 0.639835 0.591273 0.000000
C 0.405183 0.642658 0.591373 0.000000
H 0.413619 0.656909 0.602860 0.000000
C 0.362900 0.657106 0.607683 0.000000
C 0.334645 0.651751 0.605484 0.000000
H 0.323776 0.664541 0.617602 0.000000
H 0.328084 0.654573 0.586056 0.000000
H 0.330326 0.632404 0.611485 0.000000
C 0.370275 0.653759 0.635277 0.000000
H 0.368089 0.633970 0.640943 0.000000
H 0.389896 0.659349 0.638684 0.000000
H 0.358330 0.665403 0.647544 0.000000
C 0.367165 0.684485 0.599908 0.000000
H 0.355067 0.697220 0.610874 0.000000
H 0.386740 0.690362 0.603059 0.000000
H 0.362768 0.687017 0.579826 0.000000
C 0.589401 0.539389 0.628019 0.000000
H 0.584600 0.539911 0.608477 0.000000
C 0.594850 0.514917 0.639529 0.000000
C 0.589762 0.492877 0.626267 0.000000
C 0.552953 0.494427 0.601600 0.000000
H 0.544335 0.493517 0.620451 0.000000
H 0.546581 0.511737 0.592292 0.000000
H 0.546333 0.478219 0.590597 0.000000
C 0.594739 0.469521 0.637067 0.000000
C 0.589133 0.446468 0.622974 0.000000
H 0.584318 0.448090 0.603504 0.000000
C 0.604706 0.468358 0.661257 0.000000
H 0.608365 0.450212 0.669083 0.000000
C 0.609944 0.490212 0.674993 0.000000
C 0.604779 0.513378 0.663664 0.000000
H 0.608605 0.530426 0.673695 0.000000
C 0.620970 0.489620 0.701559 0.000000
C 0.646233 0.503417 0.701783 0.000000
H 0.644048 0.523411 0.696977 0.000000
H 0.654955 0.502485 0.720534 0.000000
H 0.659233 0.494837 0.688126 0.000000
C 0.625567 0.462896 0.711373 0.000000
H 0.633502 0.463347 0.730504 0.000000
H 0.607853 0.452207 0.712266 0.000000
H 0.639080 0.452818 0.699341 0.000000
C 0.602863 0.502569 0.719772 0.000000
H 0.584313 0.493364 0.719240 0.000000
H 0.610033 0.501629 0.739194 0.000000
H 0.600318 0.522551 0.715106 0.000000
O 0.429999 0.497265 0.391986 0.000000
O 0.584124 0.588370 0.457660 0.000000
N 0.599279 0.588304 0.382193 0.000000
N 0.467224 0.510083 0.325890 0.000000
N 0.595495 0.649593 0.502868 0.000000
N 0.354056 0.506422 0.400167 0.000000
C 0.574073 0.509591 0.313365 0.000000
H 0.581679 0.510590 0.294132 0.000000
C 0.555739 0.507234 0.359574 0.000000
H 0.548115 0.506253 0.378812 0.000000
C 0.572194 0.529902 0.354718 0.000000
C 0.581942 0.531193 0.330211 0.000000
C 0.597129 0.551090 0.323223 0.000000
H 0.604513 0.552240 0.304510 0.000000
C 0.602662 0.569653 0.340750 0.000000
H 0.614395 0.585136 0.335299 0.000000
C 0.593288 0.568425 0.365253 0.000000
C 0.577619 0.548392 0.372116 0.000000
H 0.569282 0.547179 0.390376 0.000000
C 0.535927 0.508405 0.339234 0.000000
C 0.545601 0.509650 0.314689 0.000000
C 0.529462 0.511035 0.294362 0.000000
H 0.536736 0.512128 0.275585 0.000000
C 0.503668 0.511052 0.298537 0.000000
H 0.491155 0.512201 0.282747 0.000000
C 0.493852 0.509552 0.322849 0.000000
C 0.510302 0.508510 0.343387 0.000000
H 0.503624 0.508299 0.362359 0.000000
C 0.571973 0.485054 0.352326 0.000000
C 0.581720 0.486269 0.327813 0.000000
C 0.596712 0.467091 0.318752 0.000000
H 0.604094 0.467836 0.300014 0.000000
C 0.602049 0.446699 0.334208 0.000000
H 0.613608 0.431767 0.327112 0.000000
C 0.592676 0.445418 0.358692 0.000000
C 0.577222 0.464765 0.367657 0.000000
H 0.568886 0.464104 0.385974 0.000000
C 0.338975 0.502300 0.468408 0.000000
C 0.312576 0.502457 0.467471 0.000000
C 0.300346 0.503852 0.444603 0.000000
H 0.280208 0.504113 0.443756 0.000000
C 0.314461 0.505044 0.422634 0.000000
H 0.304941 0.506210 0.404886 0.000000
C 0.340698 0.504650 0.423344 0.000000
C 0.352991 0.503555 0.446596 0.000000
H 0.373057 0.504138 0.448075 0.000000
C 0.455197 0.503312 0.345789 0.000000
H 0.465097 0.495708 0.361577 0.000000
C 0.427769 0.505814 0.347539 0.000000
C 0.415856 0.502615 0.370700 0.000000
C 0.437926 0.519052 0.405005 0.000000
H 0.421629 0.530056 0.411510 0.000000
H 0.448950 0.513350 0.421526 0.000000
H 0.449920 0.530848 0.392927 0.000000
C 0.389767 0.504584 0.372470 0.000000
C 0.377397 0.500841 0.396884 0.000000
H 0.388308 0.493384 0.412049 0.000000
C 0.375761 0.510306 0.351083 0.000000
H 0.355814 0.511742 0.353009 0.000000
C 0.387311 0.513918 0.327699 0.000000
C 0.413457 0.511545 0.326402 0.000000
H 0.422825 0.514050 0.308753 0.000000
C 0.372500 0.520206 0.303853 0.000000
C 0.344062 0.522148 0.308294 0.000000
H 0.339735 0.537137 0.321904 0.000000
H 0.334188 0.526726 0.290669 0.000000
H 0.336421 0.504190 0.315177 0.000000
C 0.381411 0.545478 0.293392 0.000000
H 0.370448 0.550783 0.276655 0.000000
H 0.379167 0.560332 0.307643 0.000000
H 0.401303 0.544842 0.287792 0.000000
C 0.376816 0.499661 0.284152 0.000000
H 0.371292 0.481202 0.291707 0.000000
H 0.365648 0.503334 0.267109 0.000000
H 0.396655 0.498663 0.278403 0.000000
C 0.597134 0.587395 0.406304 0.000000
H 0.591232 0.570420 0.415356 0.000000
C 0.602566 0.609426 0.422006 0.000000
C 0.595909 0.609292 0.447371 0.000000
C 0.557601 0.589516 0.456159 0.000000
H 0.551412 0.590532 0.436424 0.000000
H 0.549650 0.572421 0.464619 0.000000
H 0.550374 0.605908 0.466578 0.000000
C 0.601277 0.630037 0.462518 0.000000
C 0.594495 0.629568 0.489282 0.000000
H 0.588569 0.612080 0.497322 0.000000
C 0.612866 0.651041 0.451993 0.000000
H 0.616706 0.666670 0.464034 0.000000
C 0.619474 0.651725 0.426524 0.000000
C 0.614106 0.630577 0.411847 0.000000
H 0.619068 0.630494 0.392333 0.000000
C 0.632322 0.674440 0.414416 0.000000
C 0.657877 0.666477 0.403810 0.000000
H 0.669648 0.658364 0.418776 0.000000
H 0.655866 0.652428 0.388777 0.000000
H 0.667860 0.682751 0.395748 0.000000
C 0.636928 0.696104 0.432883 0.000000
H 0.619068 0.703058 0.440708 0.000000
H 0.649349 0.690136 0.448333 0.000000
H 0.646139 0.712037 0.423367 0.000000
C 0.615863 0.684553 0.393085 0.000000
H 0.613538 0.670625 0.377984 0.000000
H 0.597099 0.689556 0.400266 0.000000
H 0.624334 0.701450 0.384632 0.000000
O 0.423958 0.410854 0.552851 0.000000
O 0.583380 0.415846 0.448448 0.000000
N 0.594121 0.350030 0.486878 0.000000
N 0.457581 0.345834 0.576571 0.000000
N 0.598478 0.423787 0.373412 0.000000
N 0.348813 0.416290 0.537314 0.000000
C 0.563467 0.330886 0.588164 0.000000
H 0.569957 0.313444 0.597232 0.000000
C 0.547842 0.372813 0.566368 0.000000
H 0.541333 0.390261 0.557282 0.000000
C 0.564394 0.356590 0.549907 0.000000
C 0.572708 0.334340 0.561437 0.000000
C 0.587817 0.317718 0.548380 0.000000
H 0.594120 0.300638 0.557035 0.000000
C 0.594706 0.323363 0.523803 0.000000
H 0.606382 0.310434 0.513662 0.000000
C 0.586784 0.345564 0.512250 0.000000
C 0.571185 0.362168 0.525461 0.000000
H 0.563903 0.378926 0.517031 0.000000
C 0.526886 0.355450 0.574591 0.000000
C 0.535124 0.333205 0.586160 0.000000
C 0.517877 0.315592 0.594371 0.000000
H 0.524045 0.298499 0.603116 0.000000
C 0.492371 0.320239 0.591079 0.000000
H 0.478980 0.306519 0.597387 0.000000
C 0.483973 0.342414 0.579816 0.000000
C 0.501550 0.360021 0.571238 0.000000
H 0.496005 0.376824 0.561643 0.000000
C 0.563234 0.376968 0.589907 0.000000
C 0.571545 0.354734 0.601502 0.000000
C 0.585637 0.355863 0.623293 0.000000
H 0.591928 0.338954 0.632304 0.000000
C 0.591510 0.379190 0.633480 0.000000
H 0.602411 0.380044 0.650450 0.000000
C 0.583587 0.401396 0.621968 0.000000
C 0.569013 0.400142 0.600076 0.000000
H 0.561766 0.416661 0.591148 0.000000
C 0.337534 0.477964 0.506140 0.000000
C 0.311132 0.478096 0.505274 0.000000
C 0.297661 0.458090 0.514896 0.000000
H 0.277498 0.458031 0.514172 0.000000
C 0.310513 0.437958 0.525482 0.000000
H 0.300037 0.422393 0.532868 0.000000
C 0.336735 0.437733 0.526665 0.000000
C 0.350317 0.457922 0.516579 0.000000
H 0.370442 0.458130 0.516266 0.000000
C 0.446582 0.366919 0.571884 0.000000
H 0.457215 0.383978 0.571021 0.000000
C 0.419357 0.368248 0.567555 0.000000
C 0.408730 0.390308 0.558205 0.000000
C 0.433043 0.410908 0.527864 0.000000
H 0.444562 0.394077 0.524247 0.000000
H 0.417372 0.411646 0.514363 0.000000
H 0.444860 0.427610 0.525060 0.000000
C 0.382812 0.391880 0.554385 0.000000
C 0.371809 0.415342 0.544864 0.000000
H 0.383399 0.431765 0.544247 0.000000
C 0.367741 0.371079 0.559458 0.000000
H 0.347972 0.372810 0.556296 0.000000
C 0.378020 0.348613 0.568553 0.000000
C 0.403993 0.347652 0.572491 0.000000
H 0.412383 0.330782 0.579577 0.000000
C 0.361995 0.325413 0.574364 0.000000
C 0.333925 0.329396 0.569102 0.000000
H 0.330673 0.333812 0.549133 0.000000
H 0.323151 0.312248 0.573467 0.000000
H 0.326289 0.344643 0.580862 0.000000
C 0.370822 0.303350 0.558148 0.000000
H 0.390342 0.298054 0.562454 0.000000
H 0.359028 0.286651 0.561388 0.000000
H 0.369721 0.308291 0.538068 0.000000
C 0.364736 0.318548 0.602167 0.000000
H 0.384188 0.313281 0.606837 0.000000
H 0.359281 0.334557 0.614098 0.000000
H 0.352667 0.302437 0.606988 0.000000
C 0.593345 0.371415 0.475517 0.000000
H 0.587647 0.387985 0.485404 0.000000
C 0.600117 0.373744 0.448856 0.000000
C 0.594962 0.396005 0.436003 0.000000
C 0.556846 0.415077 0.446942 0.000000
H 0.550582 0.416164 0.427230 0.000000
H 0.549520 0.397769 0.455628 0.000000
H 0.549084 0.431288 0.457140 0.000000
C 0.601592 0.398470 0.410749 0.000000
C 0.596348 0.422117 0.397492 0.000000
H 0.590633 0.438082 0.408311 0.000000
C 0.612910 0.378377 0.398344 0.000000
H 0.617752 0.380784 0.378992 0.000000
C 0.618021 0.355735 0.410764 0.000000
C 0.611427 0.353874 0.436154 0.000000
H 0.615240 0.336843 0.446197 0.000000
C 0.630483 0.333318 0.397739 0.000000
C 0.655223 0.327022 0.411017 0.000000
H 0.652122 0.321183 0.430605 0.000000
H 0.664981 0.311484 0.401407 0.000000
H 0.667760 0.343518 0.411053 0.000000
C 0.636508 0.338211 0.369959 0.000000
H 0.645369 0.321613 0.361325 0.000000
H 0.619251 0.342298 0.359261 0.000000
H 0.649745 0.354031 0.367944 0.000000
C 0.612942 0.310555 0.398925 0.000000
H 0.609490 0.304573 0.418410 0.000000
H 0.594726 0.315038 0.390170 0.000000
H 0.621164 0.294403 0.388903 0.000000
C 0.299980 0.501265 0.492995 0.000000
H 0.279295 0.501408 0.492303 0.000000
C 0.349726 0.500954 0.494698 0.000000
H 0.370429 0.500822 0.495414 0.000000
