data_MC6_PM
_symmetry_space_group_name_H-M   'P 1'
_cell_length_a 67.442557
_cell_length_b 67.442557
_cell_length_c 67.442557
_cell_angle_alpha 90.000000
_cell_angle_beta 90.000000
_cell_angle_gamma 90.000000
_symmetry_Int_Tables_number 1

loop_
_symmetry_equiv_pos_as_xyz
 'x, y, z'

loop_
_atom_site_label
_atom_site_fract_x
_atom_site_fract_y
_atom_site_fract_z
_atom_site_charge
C 0.425619 0.704516 0.383231 0.000000
C 0.410559 0.717535 0.376872 0.000000
C 0.415959 0.734312 0.365759 0.000000
H 0.404715 0.744555 0.360603 0.000000
C 0.435793 0.738094 0.360981 0.000000
H 0.439269 0.751234 0.352437 0.000000
C 0.451002 0.725254 0.367142 0.000000
C 0.445849 0.708283 0.378201 0.000000
C 0.422561 0.685596 0.395558 0.000000
H 0.407031 0.682301 0.399868 0.000000
C 0.388946 0.713941 0.381494 0.000000
H 0.380249 0.727783 0.379352 0.000000
H 0.387084 0.709704 0.397297 0.000000
C 0.380248 0.698020 0.367946 0.000000
H 0.381238 0.702819 0.352218 0.000000
H 0.364417 0.695637 0.371725 0.000000
H 0.388253 0.683744 0.369684 0.000000
C 0.472200 0.730014 0.361744 0.000000
H 0.472683 0.740942 0.349409 0.000000
H 0.479878 0.716515 0.356259 0.000000
C 0.483341 0.738822 0.379376 0.000000
H 0.483092 0.728605 0.392266 0.000000
H 0.476517 0.753151 0.383779 0.000000
H 0.499029 0.741534 0.375169 0.000000
C 0.460353 0.692490 0.385902 0.000000
H 0.476173 0.694890 0.382126 0.000000
C 0.612452 0.716178 0.546070 0.000000
C 0.623638 0.732767 0.540019 0.000000
C 0.629124 0.746837 0.554374 0.000000
H 0.637780 0.759691 0.550192 0.000000
C 0.623832 0.744461 0.574302 0.000000
H 0.628582 0.755555 0.584896 0.000000
C 0.612848 0.727934 0.580634 0.000000
C 0.607053 0.713762 0.566408 0.000000
C 0.604990 0.699469 0.532513 0.000000
H 0.608897 0.700872 0.516600 0.000000
C 0.630067 0.735710 0.518778 0.000000
H 0.634291 0.751438 0.516191 0.000000
H 0.617621 0.732506 0.508495 0.000000
C 0.647942 0.722708 0.513894 0.000000
H 0.644463 0.706795 0.516134 0.000000
H 0.660693 0.726801 0.523507 0.000000
H 0.652278 0.724961 0.498178 0.000000
C 0.607699 0.725825 0.602312 0.000000
H 0.591894 0.721521 0.604051 0.000000
H 0.609429 0.740287 0.610052 0.000000
C 0.621189 0.710735 0.612461 0.000000
H 0.619787 0.695897 0.605484 0.000000
H 0.617034 0.709469 0.628338 0.000000
H 0.636880 0.715639 0.611484 0.000000
C 0.594885 0.694963 0.570544 0.000000
H 0.590393 0.692646 0.586190 0.000000
C 0.736221 0.527501 0.444583 0.000000
C 0.756168 0.521340 0.445611 0.000000
C 0.770644 0.532830 0.436001 0.000000
H 0.786102 0.528492 0.436561 0.000000
C 0.765529 0.550059 0.425649 0.000000
H 0.777164 0.558410 0.418365 0.000000
C 0.745751 0.556490 0.424537 0.000000
C 0.731026 0.545206 0.434193 0.000000
C 0.718428 0.516657 0.453810 0.000000
H 0.721916 0.502745 0.461853 0.000000
C 0.762405 0.502976 0.456777 0.000000
H 0.777396 0.498138 0.451928 0.000000
H 0.752230 0.490474 0.453454 0.000000
C 0.763120 0.506893 0.479077 0.000000
H 0.767890 0.493214 0.486904 0.000000
H 0.748329 0.511310 0.484756 0.000000
H 0.773933 0.518883 0.482370 0.000000
C 0.740937 0.575083 0.413034 0.000000
H 0.754460 0.584341 0.411217 0.000000
H 0.730120 0.584334 0.421279 0.000000
C 0.732993 0.570108 0.392418 0.000000
H 0.729370 0.584035 0.384429 0.000000
H 0.719377 0.560922 0.393411 0.000000
H 0.744389 0.561937 0.383777 0.000000
C 0.708757 0.549958 0.434654 0.000000
H 0.704206 0.563685 0.426858 0.000000
C 0.559372 0.522284 0.257190 0.000000
C 0.559182 0.515672 0.237363 0.000000
C 0.568877 0.527181 0.222961 0.000000
H 0.568975 0.522511 0.207593 0.000000
C 0.578338 0.544952 0.228003 0.000000
H 0.585452 0.553446 0.216381 0.000000
C 0.578430 0.551902 0.247633 0.000000
C 0.568983 0.540435 0.262328 0.000000
C 0.549840 0.511576 0.274898 0.000000
H 0.542274 0.497389 0.271437 0.000000
C 0.548865 0.496784 0.231169 0.000000
H 0.552452 0.484598 0.241619 0.000000
H 0.554231 0.491927 0.216354 0.000000
C 0.526459 0.499777 0.229886 0.000000
H 0.520245 0.504350 0.244402 0.000000
H 0.519277 0.485680 0.225328 0.000000
H 0.522923 0.511332 0.218669 0.000000
C 0.588379 0.571396 0.252312 0.000000
H 0.598669 0.575645 0.240157 0.000000
H 0.597568 0.570060 0.265898 0.000000
C 0.573084 0.587927 0.254676 0.000000
H 0.562577 0.584540 0.266876 0.000000
H 0.564596 0.589815 0.240692 0.000000
H 0.580758 0.602076 0.258137 0.000000
C 0.567792 0.545543 0.284502 0.000000
H 0.575138 0.559543 0.289009 0.000000
C 0.367004 0.676895 0.612294 0.000000
C 0.350337 0.689412 0.613826 0.000000
C 0.348966 0.702185 0.630221 0.000000
H 0.336324 0.711934 0.631824 0.000000
C 0.363894 0.702795 0.644631 0.000000
H 0.362323 0.713035 0.656898 0.000000
C 0.380718 0.690607 0.643226 0.000000
C 0.382219 0.677492 0.627044 0.000000
C 0.370848 0.661740 0.595715 0.000000
H 0.359311 0.660873 0.584016 0.000000
C 0.334070 0.689555 0.598434 0.000000
H 0.320500 0.696715 0.604493 0.000000
H 0.329783 0.674170 0.594452 0.000000
C 0.340409 0.701034 0.579980 0.000000
H 0.343567 0.716722 0.583904 0.000000
H 0.328254 0.700751 0.568872 0.000000
H 0.353862 0.694405 0.573219 0.000000
C 0.396588 0.691989 0.658978 0.000000
H 0.401414 0.676956 0.663608 0.000000
H 0.390619 0.699299 0.672499 0.000000
C 0.414284 0.704072 0.651672 0.000000
H 0.409507 0.719366 0.647844 0.000000
H 0.421122 0.697130 0.638410 0.000000
H 0.425633 0.704952 0.663575 0.000000
C 0.399240 0.662839 0.623309 0.000000
H 0.411297 0.662877 0.634497 0.000000
C 0.323550 0.499054 0.328627 0.000000
C 0.305332 0.505661 0.320830 0.000000
C 0.298212 0.496844 0.303352 0.000000
H 0.284307 0.501689 0.296950 0.000000
C 0.308881 0.481812 0.293798 0.000000
H 0.302783 0.475405 0.280408 0.000000
C 0.327078 0.475036 0.301355 0.000000
C 0.334525 0.483818 0.318792 0.000000
C 0.333534 0.506832 0.347565 0.000000
H 0.325350 0.518579 0.355656 0.000000
C 0.293404 0.521938 0.330540 0.000000
H 0.292720 0.519643 0.346828 0.000000
H 0.277830 0.521618 0.325164 0.000000
C 0.302081 0.542300 0.325808 0.000000
H 0.293084 0.553966 0.333127 0.000000
H 0.301819 0.544904 0.309543 0.000000
H 0.317599 0.543524 0.331151 0.000000
C 0.338032 0.458721 0.290587 0.000000
H 0.354003 0.462442 0.289260 0.000000
H 0.332328 0.457221 0.275191 0.000000
C 0.335377 0.438789 0.301009 0.000000
H 0.319402 0.434862 0.301809 0.000000
H 0.341563 0.439217 0.316244 0.000000
H 0.343235 0.427073 0.292504 0.000000
C 0.354151 0.478530 0.329043 0.000000
H 0.363117 0.466856 0.321718 0.000000
C 0.463909 0.567069 0.320165 0.000000
C 0.462982 0.585919 0.328975 0.000000
H 0.475973 0.595394 0.329004 0.000000
C 0.445366 0.592456 0.337935 0.000000
C 0.428632 0.580086 0.337946 0.000000
H 0.415025 0.585061 0.344938 0.000000
C 0.429471 0.561239 0.329245 0.000000
C 0.447110 0.554807 0.320307 0.000000
H 0.447817 0.540192 0.313623 0.000000
B 0.483684 0.559504 0.310610 0.000000
O 0.485637 0.539779 0.301696 0.000000
C 0.505529 0.539984 0.296644 0.000000
C 0.515824 0.524348 0.287755 0.000000
H 0.508395 0.510625 0.283991 0.000000
C 0.536101 0.527002 0.284088 0.000000
C 0.545703 0.545144 0.289244 0.000000
C 0.535036 0.560605 0.298158 0.000000
H 0.542190 0.574366 0.302296 0.000000
C 0.514841 0.557558 0.301712 0.000000
O 0.502134 0.570989 0.310695 0.000000
B 0.444394 0.613198 0.348320 0.000000
O 0.461367 0.626712 0.349583 0.000000
C 0.453129 0.641907 0.360700 0.000000
C 0.462946 0.659148 0.366702 0.000000
H 0.478274 0.661719 0.362772 0.000000
C 0.452228 0.672917 0.378021 0.000000
C 0.432053 0.669227 0.383189 0.000000
C 0.422564 0.651780 0.377066 0.000000
H 0.407298 0.648765 0.380977 0.000000
C 0.433533 0.638345 0.365722 0.000000
O 0.426614 0.620431 0.358515 0.000000
B 0.410977 0.547229 0.329971 0.000000
O 0.392232 0.552867 0.339401 0.000000
C 0.381651 0.535424 0.337215 0.000000
C 0.362349 0.532127 0.344035 0.000000
H 0.354161 0.543669 0.351599 0.000000
C 0.354103 0.513318 0.340870 0.000000
C 0.365126 0.498211 0.330979 0.000000
C 0.384465 0.501891 0.324314 0.000000
H 0.393066 0.490501 0.316987 0.000000
C 0.392368 0.520763 0.327652 0.000000
O 0.411255 0.526861 0.322422 0.000000
C 0.493763 0.693336 0.523095 0.000000
C 0.488269 0.694078 0.503069 0.000000
H 0.499470 0.696571 0.491795 0.000000
C 0.468400 0.691410 0.497519 0.000000
C 0.453985 0.688085 0.512164 0.000000
H 0.438615 0.685949 0.507922 0.000000
C 0.459402 0.687297 0.532244 0.000000
C 0.479304 0.689953 0.537628 0.000000
H 0.483557 0.689244 0.553128 0.000000
B 0.516002 0.695778 0.529204 0.000000
O 0.522819 0.694253 0.549772 0.000000
C 0.543093 0.695918 0.547032 0.000000
C 0.557350 0.694885 0.562029 0.000000
H 0.553099 0.692809 0.577362 0.000000
C 0.577301 0.696310 0.556436 0.000000
C 0.582680 0.698722 0.536126 0.000000
C 0.568087 0.699675 0.521355 0.000000
H 0.571974 0.701252 0.505866 0.000000
C 0.548278 0.698235 0.527314 0.000000
O 0.532031 0.698366 0.514774 0.000000
B 0.462520 0.691758 0.475059 0.000000
O 0.476989 0.694717 0.459109 0.000000
C 0.464790 0.692893 0.442695 0.000000
C 0.470945 0.694187 0.422930 0.000000
H 0.486290 0.696942 0.419206 0.000000
C 0.456509 0.691718 0.408170 0.000000
C 0.436342 0.688036 0.413320 0.000000
C 0.430554 0.686777 0.433258 0.000000
H 0.415329 0.683901 0.437354 0.000000
C 0.445218 0.689286 0.447695 0.000000
O 0.442255 0.688324 0.467999 0.000000
B 0.443489 0.683043 0.548604 0.000000
O 0.422452 0.679792 0.544205 0.000000
C 0.415361 0.675728 0.563061 0.000000
C 0.395718 0.671143 0.567808 0.000000
H 0.384382 0.670626 0.556457 0.000000
C 0.391288 0.667124 0.587707 0.000000
C 0.406450 0.667711 0.602451 0.000000
C 0.426028 0.672380 0.597319 0.000000
H 0.437679 0.672816 0.608359 0.000000
C 0.430059 0.676353 0.577377 0.000000
O 0.448514 0.680937 0.569646 0.000000
C 0.647604 0.475690 0.377541 0.000000
C 0.636456 0.485363 0.362911 0.000000
H 0.638222 0.501200 0.360668 0.000000
C 0.622857 0.474718 0.351302 0.000000
C 0.620506 0.454261 0.354360 0.000000
H 0.609942 0.446004 0.345493 0.000000
C 0.631684 0.444472 0.368939 0.000000
C 0.645233 0.455245 0.380455 0.000000
H 0.653816 0.447759 0.391818 0.000000
B 0.662304 0.487730 0.390892 0.000000
O 0.673795 0.478643 0.406921 0.000000
C 0.683118 0.495243 0.414600 0.000000
C 0.696100 0.495326 0.430761 0.000000
H 0.699807 0.481748 0.438445 0.000000
C 0.704068 0.513594 0.436615 0.000000
C 0.698888 0.531381 0.426409 0.000000
C 0.685774 0.530931 0.410280 0.000000
H 0.681687 0.544329 0.402476 0.000000
C 0.678114 0.512492 0.404679 0.000000
O 0.664900 0.509256 0.389266 0.000000
B 0.610157 0.485782 0.335319 0.000000
O 0.611600 0.507196 0.331879 0.000000
C 0.597078 0.509607 0.317569 0.000000
C 0.591597 0.527660 0.308955 0.000000
H 0.598864 0.541346 0.313089 0.000000
C 0.576183 0.527379 0.295009 0.000000
C 0.566594 0.509242 0.289888 0.000000
C 0.572373 0.491335 0.298755 0.000000
H 0.565082 0.477510 0.295165 0.000000
C 0.587776 0.492014 0.312637 0.000000
O 0.595085 0.475920 0.323144 0.000000
C 0.660703 0.569830 0.571354 0.000000
C 0.669793 0.562558 0.554142 0.000000
H 0.676659 0.548021 0.554245 0.000000
C 0.669930 0.573939 0.536741 0.000000
C 0.660983 0.592725 0.536655 0.000000
H 0.661054 0.601546 0.523203 0.000000
C 0.651817 0.600090 0.553809 0.000000
C 0.651748 0.588610 0.571148 0.000000
H 0.644626 0.594227 0.584436 0.000000
B 0.679756 0.565611 0.517477 0.000000
O 0.688860 0.545890 0.516342 0.000000
C 0.694532 0.545627 0.496614 0.000000
C 0.704010 0.529874 0.487012 0.000000
H 0.707648 0.516370 0.494885 0.000000
C 0.708457 0.532194 0.466839 0.000000
C 0.703340 0.549986 0.456629 0.000000
C 0.693820 0.565531 0.466584 0.000000
H 0.689733 0.579063 0.458993 0.000000
C 0.689609 0.562907 0.486698 0.000000
O 0.680120 0.576569 0.498732 0.000000
B 0.641505 0.620894 0.553533 0.000000
O 0.640665 0.633470 0.535836 0.000000
C 0.629802 0.649309 0.543118 0.000000
C 0.624170 0.666048 0.532234 0.000000
H 0.628291 0.667643 0.516807 0.000000
C 0.612881 0.680519 0.541982 0.000000
C 0.607481 0.678104 0.562294 0.000000
C 0.613330 0.661202 0.572870 0.000000
H 0.609206 0.659148 0.588238 0.000000
C 0.624533 0.646963 0.562806 0.000000
O 0.631308 0.629297 0.570799 0.000000
B 0.371181 0.578306 0.627187 0.000000
O 0.385894 0.590354 0.637701 0.000000
C 0.383088 0.608470 0.628436 0.000000
C 0.393756 0.625778 0.632388 0.000000
H 0.405276 0.626017 0.643564 0.000000
C 0.389103 0.642729 0.621292 0.000000
C 0.373961 0.642144 0.606545 0.000000
C 0.363524 0.624553 0.602794 0.000000
H 0.352124 0.623867 0.591525 0.000000
C 0.368457 0.607862 0.614048 0.000000
O 0.359956 0.589270 0.612134 0.000000
B 0.339932 0.443112 0.409555 0.000000
O 0.349706 0.436750 0.391225 0.000000
C 0.346331 0.453186 0.379392 0.000000
C 0.352809 0.455446 0.359837 0.000000
H 0.361132 0.443861 0.352485 0.000000
C 0.348202 0.473257 0.350194 0.000000
C 0.337210 0.488372 0.360093 0.000000
C 0.330960 0.485774 0.379733 0.000000
H 0.322784 0.497203 0.387480 0.000000
C 0.335774 0.467898 0.389058 0.000000
O 0.331009 0.462892 0.408377 0.000000
C 0.574387 0.295525 0.616810 0.000000
C 0.589456 0.282470 0.623081 0.000000
C 0.584066 0.265666 0.634149 0.000000
H 0.595310 0.255391 0.639251 0.000000
C 0.564236 0.261859 0.638942 0.000000
H 0.560759 0.248686 0.647433 0.000000
C 0.549018 0.274725 0.632853 0.000000
C 0.554150 0.291727 0.621847 0.000000
C 0.577437 0.314460 0.604536 0.000000
H 0.592956 0.317772 0.600228 0.000000
C 0.611055 0.286072 0.618417 0.000000
H 0.612870 0.290364 0.602629 0.000000
H 0.619738 0.272203 0.620464 0.000000
C 0.619813 0.301929 0.631992 0.000000
H 0.612022 0.316296 0.630098 0.000000
H 0.635731 0.304073 0.628375 0.000000
H 0.618584 0.297206 0.647724 0.000000
C 0.527798 0.269930 0.638198 0.000000
H 0.520121 0.283380 0.643775 0.000000
H 0.527329 0.258916 0.650451 0.000000
C 0.516655 0.261228 0.620512 0.000000
H 0.501123 0.257979 0.624868 0.000000
H 0.523800 0.247211 0.615664 0.000000
H 0.516447 0.271766 0.607869 0.000000
C 0.539648 0.307519 0.614172 0.000000
H 0.523816 0.305125 0.617933 0.000000
C 0.387580 0.283810 0.453795 0.000000
C 0.376361 0.267269 0.459902 0.000000
C 0.370985 0.253102 0.445620 0.000000
H 0.362398 0.240214 0.449847 0.000000
C 0.376295 0.255388 0.425686 0.000000
H 0.371619 0.244212 0.415143 0.000000
C 0.387164 0.271958 0.419278 0.000000
C 0.392983 0.286178 0.433462 0.000000
C 0.395072 0.300529 0.467334 0.000000
H 0.391173 0.299144 0.483246 0.000000
C 0.369824 0.264458 0.481124 0.000000
H 0.382271 0.267567 0.491453 0.000000
H 0.365451 0.248774 0.483758 0.000000
C 0.352046 0.277623 0.485967 0.000000
H 0.347450 0.275146 0.501578 0.000000
H 0.339392 0.273895 0.476100 0.000000
H 0.355792 0.293533 0.484085 0.000000
C 0.392119 0.274077 0.397546 0.000000
H 0.390413 0.259603 0.389838 0.000000
H 0.407863 0.278469 0.395653 0.000000
C 0.378455 0.289060 0.387490 0.000000
H 0.379871 0.303928 0.394398 0.000000
H 0.362804 0.284087 0.388658 0.000000
H 0.382410 0.290281 0.371556 0.000000
C 0.405159 0.304985 0.429284 0.000000
H 0.409621 0.307271 0.413620 0.000000
C 0.263766 0.472478 0.555560 0.000000
C 0.243844 0.478676 0.554471 0.000000
C 0.229299 0.467128 0.563920 0.000000
H 0.213836 0.471448 0.563248 0.000000
C 0.234353 0.449836 0.574213 0.000000
H 0.222658 0.441447 0.581336 0.000000
C 0.254138 0.443433 0.575481 0.000000
C 0.268911 0.454750 0.565952 0.000000
C 0.281574 0.483235 0.546275 0.000000
H 0.278128 0.497141 0.538212 0.000000
C 0.237668 0.497102 0.543365 0.000000
H 0.247854 0.509563 0.546788 0.000000
H 0.222685 0.501949 0.548196 0.000000
C 0.237014 0.493308 0.521050 0.000000
H 0.232376 0.507063 0.513261 0.000000
H 0.226133 0.481408 0.517663 0.000000
H 0.251793 0.488815 0.515393 0.000000
C 0.258901 0.424852 0.587014 0.000000
H 0.269422 0.415394 0.578615 0.000000
H 0.245286 0.415802 0.589184 0.000000
C 0.267325 0.429853 0.607425 0.000000
H 0.256280 0.438402 0.616174 0.000000
H 0.281120 0.438709 0.606118 0.000000
H 0.270774 0.415934 0.615522 0.000000
C 0.291185 0.449950 0.565496 0.000000
H 0.295686 0.436210 0.573313 0.000000
C 0.440603 0.477831 0.742806 0.000000
C 0.440840 0.484399 0.762636 0.000000
C 0.431190 0.472868 0.777051 0.000000
H 0.431125 0.477523 0.792416 0.000000
C 0.421740 0.455104 0.772017 0.000000
H 0.414650 0.446587 0.783654 0.000000
C 0.421616 0.448145 0.752381 0.000000
C 0.430984 0.459661 0.737667 0.000000
C 0.450125 0.488532 0.725090 0.000000
H 0.457680 0.502713 0.728543 0.000000
C 0.451191 0.503259 0.768834 0.000000
H 0.445800 0.508151 0.783628 0.000000
H 0.447644 0.515461 0.758374 0.000000
C 0.473593 0.500244 0.770168 0.000000
H 0.479842 0.495829 0.755615 0.000000
H 0.477079 0.488575 0.781271 0.000000
H 0.480759 0.514298 0.774914 0.000000
C 0.411761 0.428584 0.747742 0.000000
H 0.402440 0.429921 0.734243 0.000000
H 0.401601 0.424251 0.759986 0.000000
C 0.427119 0.412155 0.745190 0.000000
H 0.419506 0.397991 0.741690 0.000000
H 0.435691 0.410230 0.759123 0.000000
H 0.437560 0.415654 0.732959 0.000000
C 0.432132 0.454561 0.715489 0.000000
H 0.424786 0.440561 0.710982 0.000000
C 0.632977 0.323114 0.387644 0.000000
C 0.649633 0.310604 0.386097 0.000000
C 0.650968 0.297776 0.369736 0.000000
H 0.663570 0.287929 0.368181 0.000000
C 0.636085 0.297229 0.355274 0.000000
H 0.637655 0.286988 0.343007 0.000000
C 0.619289 0.309449 0.356670 0.000000
C 0.617752 0.322522 0.372904 0.000000
C 0.629165 0.338267 0.404212 0.000000
H 0.640719 0.339150 0.415877 0.000000
C 0.665924 0.310507 0.401446 0.000000
H 0.670175 0.325910 0.405380 0.000000
H 0.679489 0.303385 0.395364 0.000000
C 0.659637 0.299050 0.419923 0.000000
H 0.656341 0.283391 0.416019 0.000000
H 0.646267 0.305766 0.426778 0.000000
H 0.671846 0.299275 0.430956 0.000000
C 0.603426 0.308087 0.340919 0.000000
H 0.609377 0.300762 0.327407 0.000000
H 0.598639 0.323149 0.336271 0.000000
C 0.585729 0.296038 0.348252 0.000000
H 0.574313 0.295246 0.336419 0.000000
H 0.578994 0.302954 0.361592 0.000000
H 0.590492 0.280730 0.352004 0.000000
C 0.600707 0.337138 0.376698 0.000000
H 0.588624 0.337066 0.365545 0.000000
C 0.676341 0.500947 0.671515 0.000000
C 0.694613 0.494386 0.679233 0.000000
C 0.701805 0.503275 0.696642 0.000000
H 0.715810 0.498537 0.702939 0.000000
C 0.691160 0.518294 0.706227 0.000000
H 0.697330 0.524797 0.719557 0.000000
C 0.672920 0.525020 0.698739 0.000000
C 0.665416 0.516206 0.681348 0.000000
C 0.666365 0.493188 0.652577 0.000000
H 0.674499 0.481418 0.644489 0.000000
C 0.706545 0.478201 0.669416 0.000000
H 0.722156 0.478610 0.674674 0.000000
H 0.707117 0.480571 0.653131 0.000000
C 0.698022 0.457768 0.674142 0.000000
H 0.682427 0.456528 0.669045 0.000000
H 0.698568 0.455046 0.690381 0.000000
H 0.706950 0.446210 0.666559 0.000000
C 0.662095 0.541463 0.709402 0.000000
H 0.667839 0.543083 0.724785 0.000000
H 0.646098 0.537833 0.710796 0.000000
C 0.664811 0.561278 0.698781 0.000000
H 0.656800 0.573071 0.706990 0.000000
H 0.658882 0.560631 0.683447 0.000000
H 0.680796 0.565232 0.698161 0.000000
C 0.645784 0.521542 0.671091 0.000000
H 0.636836 0.533243 0.678399 0.000000
C 0.536002 0.432971 0.679866 0.000000
C 0.536926 0.414146 0.671040 0.000000
H 0.523961 0.404646 0.671051 0.000000
C 0.554522 0.407654 0.662016 0.000000
C 0.571243 0.420031 0.661963 0.000000
H 0.584832 0.415099 0.654931 0.000000
C 0.570409 0.438873 0.670741 0.000000
C 0.552787 0.445263 0.679718 0.000000
H 0.552094 0.459859 0.686426 0.000000
B 0.516264 0.440529 0.689487 0.000000
O 0.514324 0.460236 0.698424 0.000000
C 0.494426 0.460069 0.703427 0.000000
C 0.484138 0.475726 0.712291 0.000000
H 0.491572 0.489423 0.716096 0.000000
C 0.463832 0.473098 0.715892 0.000000
C 0.454239 0.454963 0.710720 0.000000
C 0.464898 0.439495 0.701823 0.000000
H 0.457740 0.425748 0.697651 0.000000
C 0.485100 0.442503 0.698318 0.000000
O 0.497786 0.429081 0.689354 0.000000
B 0.555498 0.386898 0.651663 0.000000
O 0.538556 0.373321 0.650464 0.000000
C 0.546831 0.358109 0.639395 0.000000
C 0.537031 0.340825 0.633432 0.000000
H 0.521708 0.338227 0.637404 0.000000
C 0.547766 0.327082 0.622096 0.000000
C 0.567917 0.330796 0.616914 0.000000
C 0.577380 0.348267 0.622997 0.000000
H 0.592631 0.351313 0.619055 0.000000
C 0.566388 0.361701 0.634317 0.000000
O 0.573276 0.379677 0.641461 0.000000
B 0.588886 0.452879 0.670067 0.000000
O 0.607617 0.447259 0.660614 0.000000
C 0.618212 0.464695 0.662841 0.000000
C 0.637505 0.467984 0.656038 0.000000
H 0.645659 0.456448 0.648434 0.000000
C 0.645779 0.486757 0.659251 0.000000
C 0.634777 0.501866 0.669141 0.000000
C 0.615426 0.498213 0.675825 0.000000
H 0.606851 0.509590 0.683210 0.000000
C 0.607508 0.479349 0.672445 0.000000
O 0.588614 0.473220 0.677682 0.000000
C 0.506317 0.306626 0.476972 0.000000
C 0.511793 0.305857 0.497014 0.000000
H 0.500562 0.303435 0.508268 0.000000
C 0.531660 0.308456 0.502595 0.000000
C 0.546122 0.311759 0.487988 0.000000
H 0.561487 0.313838 0.492254 0.000000
C 0.540743 0.312587 0.467908 0.000000
C 0.520847 0.309952 0.462473 0.000000
H 0.516624 0.310658 0.446962 0.000000
B 0.484067 0.304248 0.470798 0.000000
O 0.477281 0.305759 0.450201 0.000000
C 0.456994 0.304077 0.452889 0.000000
C 0.442741 0.305052 0.437855 0.000000
H 0.447028 0.307077 0.422517 0.000000
C 0.422755 0.303633 0.443407 0.000000
C 0.417372 0.301256 0.463720 0.000000
C 0.431944 0.300313 0.478510 0.000000
H 0.428026 0.298727 0.493992 0.000000
C 0.451765 0.301782 0.472594 0.000000
O 0.467980 0.301675 0.485181 0.000000
B 0.537540 0.308097 0.525038 0.000000
O 0.523047 0.305276 0.540988 0.000000
C 0.535233 0.307129 0.557396 0.000000
C 0.529071 0.305897 0.577147 0.000000
H 0.513699 0.303188 0.580867 0.000000
C 0.543488 0.308350 0.591917 0.000000
C 0.563666 0.312016 0.586765 0.000000
C 0.569485 0.313179 0.566836 0.000000
H 0.584738 0.315996 0.562753 0.000000
C 0.554823 0.310647 0.552389 0.000000
O 0.557817 0.311514 0.532095 0.000000
B 0.556662 0.316907 0.451568 0.000000
O 0.577714 0.320186 0.455925 0.000000
C 0.584763 0.324235 0.437053 0.000000
C 0.604401 0.328824 0.432230 0.000000
H 0.615787 0.329330 0.443525 0.000000
C 0.608767 0.332827 0.412292 0.000000
C 0.593568 0.332210 0.397591 0.000000
C 0.573997 0.327524 0.402808 0.000000
H 0.562310 0.327058 0.391812 0.000000
C 0.570038 0.323588 0.422764 0.000000
O 0.551618 0.318998 0.430535 0.000000
C 0.352640 0.524295 0.622188 0.000000
C 0.363706 0.514681 0.636930 0.000000
H 0.361940 0.498855 0.639192 0.000000
C 0.377171 0.525363 0.648628 0.000000
C 0.379499 0.545830 0.645564 0.000000
H 0.389969 0.554117 0.654499 0.000000
C 0.368385 0.555558 0.630900 0.000000
C 0.354969 0.544748 0.619269 0.000000
H 0.346460 0.552191 0.607847 0.000000
B 0.338058 0.512213 0.608801 0.000000
O 0.326538 0.521280 0.592773 0.000000
C 0.317130 0.504658 0.585219 0.000000
C 0.304049 0.504560 0.569142 0.000000
H 0.300393 0.518118 0.561384 0.000000
C 0.295974 0.486292 0.563425 0.000000
C 0.301123 0.468531 0.573677 0.000000
C 0.314355 0.469010 0.589713 0.000000
H 0.318484 0.455637 0.597550 0.000000
C 0.322124 0.487446 0.595203 0.000000
O 0.335412 0.490720 0.610518 0.000000
B 0.389777 0.514352 0.664715 0.000000
O 0.388314 0.492935 0.668157 0.000000
C 0.402836 0.490524 0.682467 0.000000
C 0.408335 0.472475 0.691054 0.000000
H 0.401058 0.458782 0.686911 0.000000
C 0.423740 0.472736 0.704999 0.000000
C 0.433350 0.490864 0.710101 0.000000
C 0.427571 0.508782 0.701252 0.000000
H 0.434894 0.522594 0.704813 0.000000
C 0.412158 0.508119 0.687397 0.000000
O 0.404860 0.524209 0.676881 0.000000
C 0.339491 0.430193 0.428784 0.000000
C 0.330273 0.437374 0.445992 0.000000
H 0.323438 0.451930 0.445914 0.000000
C 0.329973 0.425873 0.463321 0.000000
C 0.338937 0.407103 0.463373 0.000000
H 0.338774 0.398210 0.476758 0.000000
C 0.348209 0.399839 0.446216 0.000000
C 0.348442 0.411427 0.428958 0.000000
H 0.355655 0.405871 0.415693 0.000000
B 0.319924 0.434085 0.482560 0.000000
O 0.310887 0.453809 0.483742 0.000000
C 0.305213 0.454085 0.503463 0.000000
C 0.295871 0.469878 0.513100 0.000000
H 0.292304 0.483419 0.505241 0.000000
C 0.291491 0.467630 0.533289 0.000000
C 0.296559 0.449826 0.543519 0.000000
C 0.305883 0.434188 0.533513 0.000000
H 0.309888 0.420624 0.541099 0.000000
C 0.310046 0.436753 0.513374 0.000000
O 0.319460 0.423069 0.501293 0.000000
B 0.358444 0.379015 0.446394 0.000000
O 0.359306 0.366407 0.464061 0.000000
C 0.370155 0.350575 0.456738 0.000000
C 0.375855 0.333886 0.467602 0.000000
H 0.371777 0.332283 0.483034 0.000000
C 0.387171 0.319449 0.457846 0.000000
C 0.392542 0.321843 0.437535 0.000000
C 0.386610 0.338725 0.426947 0.000000
H 0.390669 0.340775 0.411557 0.000000
C 0.375368 0.352936 0.437029 0.000000
O 0.368583 0.370628 0.429081 0.000000
B 0.628826 0.421705 0.372664 0.000000
O 0.614054 0.409659 0.362223 0.000000
C 0.616840 0.391541 0.371489 0.000000
C 0.606157 0.374205 0.367580 0.000000
H 0.594638 0.373942 0.356393 0.000000
C 0.610809 0.357265 0.378694 0.000000
C 0.625989 0.357868 0.393404 0.000000
C 0.636456 0.375436 0.397083 0.000000
H 0.647906 0.376122 0.408315 0.000000
C 0.631512 0.392131 0.385839 0.000000
O 0.640043 0.410721 0.387717 0.000000
B 0.660304 0.556936 0.590617 0.000000
O 0.650472 0.563314 0.608899 0.000000
C 0.653766 0.546847 0.620728 0.000000
C 0.647231 0.544614 0.640254 0.000000
H 0.638905 0.556213 0.647573 0.000000
C 0.651768 0.526788 0.649945 0.000000
C 0.662731 0.511652 0.640047 0.000000
C 0.669036 0.514224 0.620410 0.000000
H 0.677207 0.502763 0.612696 0.000000
C 0.664295 0.532112 0.611089 0.000000
O 0.669156 0.537121 0.591781 0.000000
