data_MC7_PM
_symmetry_space_group_name_H-M   'P 1'
_cell_length_a 54.175004
_cell_length_b 54.175004
_cell_length_c 54.175004
_cell_angle_alpha 90.000000
_cell_angle_beta 90.000000
_cell_angle_gamma 90.000000
_symmetry_Int_Tables_number 1

loop_
_symmetry_equiv_pos_as_xyz
 'x, y, z'

loop_
_atom_site_label
_atom_site_fract_x
_atom_site_fract_y
_atom_site_fract_z
_atom_site_charge
C 0.389178 0.539280 0.505235 0.000000
C 0.386292 0.517875 0.519915 0.000000
C 0.384897 0.494621 0.508128 0.000000
C 0.385505 0.492869 0.481832 0.000000
C 0.388335 0.514261 0.467186 0.000000
C 0.389810 0.537496 0.478946 0.000000
C 0.392484 0.565342 0.515789 0.000000
C 0.383390 0.470070 0.522128 0.000000
C 0.389775 0.512205 0.439150 0.000000
C 0.391476 0.561890 0.464737 0.000000
C 0.418462 0.588569 0.441672 0.000000
C 0.444913 0.593941 0.434121 0.000000
C 0.461676 0.599702 0.453202 0.000000
C 0.486236 0.604983 0.446251 0.000000
C 0.491249 0.603955 0.420774 0.000000
C 0.474786 0.598165 0.401519 0.000000
C 0.450296 0.592885 0.408658 0.000000
C 0.520315 0.627148 0.394965 0.000000
C 0.538714 0.623103 0.376917 0.000000
C 0.543105 0.640712 0.358288 0.000000
C 0.529098 0.662581 0.357519 0.000000
C 0.510710 0.666797 0.375388 0.000000
C 0.506360 0.649158 0.393982 0.000000
C 0.383627 0.519870 0.547801 0.000000
C 0.404582 0.522755 0.586466 0.000000
C 0.428779 0.521399 0.600535 0.000000
C 0.432707 0.536749 0.620965 0.000000
C 0.454515 0.534489 0.634811 0.000000
C 0.473483 0.517179 0.629741 0.000000
C 0.468354 0.502055 0.609027 0.000000
C 0.446750 0.503682 0.594725 0.000000
C 0.611123 0.464669 0.523563 0.000000
C 0.612969 0.488430 0.534254 0.000000
C 0.614737 0.509198 0.518549 0.000000
C 0.615608 0.506182 0.492375 0.000000
C 0.613880 0.482453 0.481706 0.000000
C 0.611925 0.461685 0.497389 0.000000
C 0.607508 0.440831 0.538432 0.000000
C 0.614996 0.535910 0.527915 0.000000
C 0.613817 0.479382 0.453726 0.000000
C 0.610817 0.435152 0.487689 0.000000
C 0.584205 0.406055 0.467149 0.000000
C 0.557711 0.398045 0.462487 0.000000
C 0.555357 0.388275 0.438638 0.000000
C 0.532050 0.380080 0.431439 0.000000
C 0.512562 0.381985 0.448426 0.000000
C 0.514727 0.391667 0.472635 0.000000
C 0.538510 0.400101 0.480057 0.000000
C 0.486261 0.350878 0.428542 0.000000
C 0.470261 0.348476 0.408072 0.000000
C 0.467700 0.325659 0.395874 0.000000
C 0.481124 0.304962 0.404026 0.000000
C 0.497119 0.307136 0.424391 0.000000
C 0.499666 0.329966 0.436553 0.000000
C 0.613571 0.491608 0.562173 0.000000
C 0.589454 0.495661 0.598903 0.000000
C 0.564311 0.500470 0.610277 0.000000
C 0.557300 0.487829 0.631907 0.000000
C 0.534281 0.492597 0.642992 0.000000
C 0.517913 0.510062 0.632672 0.000000
C 0.524972 0.522623 0.610950 0.000000
C 0.548029 0.517930 0.599876 0.000000
C 0.493888 0.518081 0.669888 0.000000
C 0.474890 0.506767 0.683725 0.000000
C 0.473726 0.509737 0.709523 0.000000
C 0.511761 0.532408 0.682389 0.000000
C 0.510626 0.535400 0.708183 0.000000
C 0.491613 0.524067 0.721796 0.000000
C 0.382328 0.466994 0.470854 0.000000
C 0.403077 0.429239 0.460691 0.000000
C 0.427434 0.416715 0.454550 0.000000
C 0.425913 0.391443 0.459889 0.000000
C 0.446719 0.377039 0.455183 0.000000
C 0.467711 0.388647 0.445344 0.000000
C 0.469441 0.414150 0.439742 0.000000
C 0.448224 0.428937 0.444554 0.000000
N 0.416931 0.568757 0.459697 0.000000
N 0.515880 0.609474 0.413598 0.000000
N 0.407270 0.517641 0.560258 0.000000
C 0.618905 0.529753 0.477082 0.000000
C 0.598178 0.563826 0.458036 0.000000
C 0.574561 0.573516 0.446366 0.000000
C 0.576250 0.599171 0.443447 0.000000
C 0.556306 0.611203 0.432509 0.000000
C 0.535957 0.596977 0.425031 0.000000
C 0.534000 0.571053 0.427915 0.000000
C 0.554358 0.558661 0.439079 0.000000
N 0.585480 0.427487 0.483219 0.000000
N 0.488836 0.373739 0.440740 0.000000
N 0.589035 0.495998 0.572079 0.000000
N 0.495073 0.515080 0.644072 0.000000
N 0.406034 0.455364 0.466083 0.000000
N 0.595297 0.539348 0.468669 0.000000
H 0.407815 0.575177 0.507264 0.000000
H 0.375622 0.576135 0.513748 0.000000
H 0.397012 0.565024 0.535353 0.000000
H 0.364694 0.462658 0.521727 0.000000
H 0.396276 0.456319 0.515111 0.000000
H 0.388520 0.472252 0.541437 0.000000
H 0.371386 0.513284 0.431095 0.000000
H 0.398216 0.494862 0.433428 0.000000
H 0.401153 0.526711 0.431119 0.000000
H 0.381495 0.576986 0.473490 0.000000
H 0.381758 0.559294 0.447298 0.000000
H 0.407732 0.583675 0.425339 0.000000
H 0.410271 0.605314 0.449268 0.000000
H 0.456005 0.600004 0.472331 0.000000
H 0.500170 0.609615 0.459734 0.000000
H 0.480453 0.597745 0.382397 0.000000
H 0.436478 0.588294 0.395050 0.000000
H 0.549503 0.606334 0.377216 0.000000
H 0.557204 0.637359 0.344603 0.000000
H 0.532452 0.676101 0.343229 0.000000
H 0.499931 0.683547 0.374874 0.000000
H 0.492260 0.652662 0.407636 0.000000
H 0.370899 0.505797 0.554524 0.000000
H 0.374764 0.537337 0.552410 0.000000
H 0.396659 0.541106 0.588959 0.000000
H 0.391730 0.509576 0.594680 0.000000
H 0.419045 0.550272 0.626232 0.000000
H 0.456905 0.546787 0.650320 0.000000
H 0.481716 0.488131 0.603961 0.000000
H 0.443993 0.491197 0.579415 0.000000
H 0.624516 0.430091 0.539058 0.000000
H 0.602087 0.444497 0.557416 0.000000
H 0.592644 0.429407 0.531160 0.000000
H 0.602211 0.547756 0.517894 0.000000
H 0.633536 0.543682 0.527051 0.000000
H 0.608944 0.537157 0.547044 0.000000
H 0.632574 0.476677 0.446968 0.000000
H 0.605991 0.495421 0.444465 0.000000
H 0.602604 0.463755 0.447923 0.000000
H 0.620453 0.421880 0.499315 0.000000
H 0.621082 0.434663 0.470397 0.000000
H 0.593417 0.410436 0.449769 0.000000
H 0.594172 0.390682 0.475521 0.000000
H 0.570698 0.387003 0.425970 0.000000
H 0.529171 0.372613 0.413183 0.000000
H 0.499153 0.392643 0.485021 0.000000
H 0.541720 0.407727 0.498212 0.000000
H 0.459940 0.364247 0.401574 0.000000
H 0.455431 0.324099 0.380246 0.000000
H 0.479164 0.287453 0.394663 0.000000
H 0.507459 0.291311 0.430723 0.000000
H 0.511915 0.331373 0.452228 0.000000
H 0.625823 0.506800 0.567070 0.000000
H 0.621928 0.475399 0.570630 0.000000
H 0.596282 0.477822 0.605317 0.000000
H 0.602215 0.509692 0.605677 0.000000
H 0.569565 0.474487 0.640209 0.000000
H 0.529179 0.482752 0.659581 0.000000
H 0.512800 0.536150 0.602814 0.000000
H 0.553242 0.527857 0.583365 0.000000
H 0.461142 0.495620 0.674525 0.000000
H 0.459135 0.500968 0.719877 0.000000
H 0.526388 0.541267 0.672127 0.000000
H 0.524382 0.546433 0.717508 0.000000
H 0.490726 0.526357 0.741578 0.000000
H 0.372364 0.468547 0.453426 0.000000
H 0.370394 0.455306 0.482045 0.000000
H 0.394476 0.420299 0.476569 0.000000
H 0.390641 0.426933 0.445011 0.000000
H 0.409456 0.383032 0.467389 0.000000
H 0.446595 0.357504 0.459132 0.000000
H 0.486019 0.422156 0.432093 0.000000
H 0.448034 0.448506 0.440701 0.000000
H 0.630100 0.525365 0.460948 0.000000
H 0.629681 0.543790 0.486599 0.000000
H 0.612408 0.563329 0.443760 0.000000
H 0.604485 0.576476 0.472398 0.000000
H 0.592246 0.609564 0.449245 0.000000
H 0.556637 0.630973 0.429890 0.000000
H 0.517959 0.560937 0.421755 0.000000
H 0.554359 0.538876 0.441666 0.000000
H 0.427067 0.553828 0.454866 0.000000
H 0.419618 0.529154 0.552316 0.000000
H 0.417282 0.458144 0.480695 0.000000
H 0.575663 0.441890 0.476491 0.000000
H 0.577256 0.483197 0.565312 0.000000
H 0.583494 0.539633 0.483111 0.000000
