data_NC1_PM
_symmetry_space_group_name_H-M   'P 1'
_cell_length_a 53.575465
_cell_length_b 53.575465
_cell_length_c 53.575465
_cell_angle_alpha 90.000000
_cell_angle_beta 90.000000
_cell_angle_gamma 90.000000
_symmetry_Int_Tables_number 1

loop_
_symmetry_equiv_pos_as_xyz
 'x, y, z'

loop_
_atom_site_label
_atom_site_fract_x
_atom_site_fract_y
_atom_site_fract_z
_atom_site_charge
C 0.562158 0.434072 0.555110 0.000000
H 0.577139 0.420003 0.552704 0.000000
C 0.539512 0.419911 0.564827 0.000000
C 0.543220 0.399994 0.581623 0.000000
C 0.522755 0.387057 0.591313 0.000000
H 0.525725 0.371624 0.604029 0.000000
C 0.498452 0.393927 0.584934 0.000000
C 0.494228 0.413794 0.568186 0.000000
C 0.467517 0.420728 0.561305 0.000000
H 0.455905 0.417072 0.578024 0.000000
C 0.458124 0.404719 0.539813 0.000000
C 0.438400 0.387630 0.543437 0.000000
C 0.428082 0.375294 0.522751 0.000000
H 0.412266 0.362930 0.525125 0.000000
C 0.436658 0.380121 0.498623 0.000000
C 0.456495 0.397032 0.494747 0.000000
C 0.463526 0.405548 0.468540 0.000000
H 0.450547 0.396798 0.454982 0.000000
C 0.489651 0.396831 0.461344 0.000000
C 0.492656 0.372909 0.450809 0.000000
C 0.516020 0.365235 0.442218 0.000000
H 0.517916 0.347301 0.433065 0.000000
C 0.536853 0.380780 0.444569 0.000000
C 0.534818 0.403866 0.457026 0.000000
C 0.558388 0.419477 0.460945 0.000000
H 0.573273 0.406034 0.466252 0.000000
C 0.565975 0.433181 0.437245 0.000000
C 0.590330 0.430739 0.427469 0.000000
C 0.598401 0.447258 0.408701 0.000000
H 0.617462 0.446611 0.402049 0.000000
C 0.582863 0.466355 0.400099 0.000000
C 0.558310 0.468466 0.409329 0.000000
C 0.542443 0.491180 0.403370 0.000000
H 0.551830 0.502537 0.388794 0.000000
C 0.517389 0.483527 0.392216 0.000000
C 0.516972 0.473265 0.367966 0.000000
C 0.494311 0.467046 0.356739 0.000000
H 0.494211 0.459563 0.337967 0.000000
C 0.471841 0.469833 0.369702 0.000000
C 0.471806 0.478985 0.394332 0.000000
C 0.447525 0.479028 0.409242 0.000000
H 0.434983 0.464953 0.400616 0.000000
C 0.434509 0.504290 0.408345 0.000000
C 0.411713 0.507157 0.395440 0.000000
C 0.397916 0.529179 0.398110 0.000000
H 0.379955 0.530867 0.388994 0.000000
C 0.405960 0.548125 0.414065 0.000000
C 0.570662 0.453721 0.573859 0.000000
C 0.514945 0.426626 0.558307 0.000000
H 0.511968 0.441878 0.545605 0.000000
C 0.467797 0.408249 0.515627 0.000000
H 0.483052 0.421192 0.512847 0.000000
C 0.510996 0.411835 0.465032 0.000000
H 0.508988 0.429741 0.473860 0.000000
C 0.549852 0.451233 0.427187 0.000000
H 0.531302 0.453386 0.434930 0.000000
C 0.494590 0.486352 0.405123 0.000000
H 0.494430 0.493657 0.423811 0.000000
C 0.443828 0.524564 0.422248 0.000000
H 0.461610 0.522857 0.431621 0.000000
C 0.559389 0.445814 0.528886 0.000000
H 0.577115 0.455840 0.524764 0.000000
H 0.544404 0.460098 0.528295 0.000000
C 0.555034 0.426268 0.508373 0.000000
H 0.536159 0.417983 0.510460 0.000000
H 0.569020 0.411092 0.510188 0.000000
C 0.557575 0.438513 0.482626 0.000000
H 0.575524 0.448965 0.482259 0.000000
H 0.542628 0.452630 0.479898 0.000000
C 0.458436 0.433822 0.465567 0.000000
H 0.471193 0.445240 0.477245 0.000000
H 0.439245 0.437440 0.472698 0.000000
C 0.459616 0.442715 0.438344 0.000000
H 0.447738 0.430480 0.426512 0.000000
H 0.479152 0.441557 0.431476 0.000000
C 0.450165 0.469759 0.436501 0.000000
H 0.431350 0.470736 0.445246 0.000000
H 0.462514 0.482097 0.447655 0.000000
C 0.541542 0.507909 0.426891 0.000000
H 0.560876 0.509273 0.434351 0.000000
H 0.530343 0.499318 0.442063 0.000000
C 0.532467 0.534477 0.421432 0.000000
H 0.512270 0.534371 0.416815 0.000000
H 0.542766 0.542050 0.405118 0.000000
C 0.462830 0.448624 0.555812 0.000000
H 0.442892 0.450530 0.550318 0.000000
H 0.473907 0.455375 0.539674 0.000000
C 0.574748 0.394452 0.612620 0.000000
C 0.608427 0.388273 0.643899 0.000000
C 0.591332 0.379163 0.665248 0.000000
H 0.584470 0.360022 0.661201 0.000000
H 0.575028 0.391591 0.668012 0.000000
H 0.601676 0.378752 0.683228 0.000000
C 0.632894 0.373347 0.644955 0.000000
H 0.645582 0.379218 0.629624 0.000000
H 0.629072 0.353080 0.642682 0.000000
H 0.642686 0.376228 0.663037 0.000000
C 0.614759 0.416185 0.646945 0.000000
H 0.627195 0.422450 0.631595 0.000000
H 0.624416 0.419466 0.665004 0.000000
H 0.597801 0.427985 0.646609 0.000000
C 0.472414 0.390537 0.619946 0.000000
C 0.479776 0.421431 0.654000 0.000000
C 0.485611 0.401973 0.674412 0.000000
H 0.472066 0.386341 0.674212 0.000000
H 0.484712 0.410655 0.693216 0.000000
H 0.504637 0.394218 0.671617 0.000000
C 0.452584 0.430657 0.656025 0.000000
H 0.439020 0.415082 0.654952 0.000000
H 0.448400 0.444056 0.640772 0.000000
H 0.449555 0.440109 0.674204 0.000000
C 0.497251 0.443904 0.657667 0.000000
H 0.493960 0.458076 0.642850 0.000000
H 0.517070 0.437904 0.656376 0.000000
H 0.494257 0.452837 0.676162 0.000000
C 0.420207 0.361831 0.575675 0.000000
C 0.395435 0.337356 0.606332 0.000000
C 0.417440 0.322163 0.617058 0.000000
H 0.428771 0.333969 0.629760 0.000000
H 0.429758 0.314881 0.602123 0.000000
H 0.410449 0.305814 0.627749 0.000000
C 0.380858 0.322004 0.586792 0.000000
H 0.393216 0.314934 0.571775 0.000000
H 0.366047 0.333649 0.578159 0.000000
H 0.371972 0.305502 0.595691 0.000000
C 0.377599 0.343843 0.627852 0.000000
H 0.370240 0.326713 0.636977 0.000000
H 0.361559 0.354939 0.620784 0.000000
H 0.387405 0.355249 0.642135 0.000000
C 0.404945 0.380429 0.467620 0.000000
C 0.377353 0.384680 0.430612 0.000000
C 0.386816 0.410998 0.423546 0.000000
H 0.374065 0.419921 0.409817 0.000000
H 0.405732 0.409799 0.415138 0.000000
H 0.387806 0.423519 0.439973 0.000000
C 0.352316 0.386100 0.444720 0.000000
H 0.346817 0.367239 0.451345 0.000000
H 0.337353 0.393328 0.432282 0.000000
H 0.353326 0.398744 0.461054 0.000000
C 0.373204 0.369774 0.406478 0.000000
H 0.391193 0.367313 0.396488 0.000000
H 0.359793 0.379371 0.393886 0.000000
H 0.365850 0.350875 0.410814 0.000000
C 0.471382 0.335454 0.462109 0.000000
C 0.447250 0.298106 0.475365 0.000000
C 0.444052 0.306369 0.502785 0.000000
H 0.438560 0.290263 0.514643 0.000000
H 0.429306 0.320866 0.504223 0.000000
H 0.461550 0.314101 0.510634 0.000000
C 0.422913 0.285451 0.466910 0.000000
H 0.424439 0.279457 0.447116 0.000000
H 0.407027 0.298735 0.468361 0.000000
H 0.418666 0.268809 0.478545 0.000000
C 0.468716 0.279062 0.472789 0.000000
H 0.472250 0.274945 0.452779 0.000000
H 0.463895 0.261314 0.482422 0.000000
H 0.486264 0.285986 0.481282 0.000000
C 0.559657 0.373992 0.407681 0.000000
C 0.540049 0.389215 0.368346 0.000000
C 0.543329 0.365239 0.352780 0.000000
H 0.562138 0.356934 0.355199 0.000000
H 0.541005 0.369353 0.332584 0.000000
H 0.529167 0.351142 0.358323 0.000000
C 0.560858 0.408232 0.362578 0.000000
H 0.559345 0.415123 0.343067 0.000000
H 0.579672 0.399900 0.364793 0.000000
H 0.559347 0.424402 0.375405 0.000000
C 0.514825 0.401061 0.361491 0.000000
H 0.514376 0.406939 0.341599 0.000000
H 0.511299 0.417657 0.373438 0.000000
H 0.499425 0.387529 0.364727 0.000000
C 0.624460 0.401285 0.424727 0.000000
C 0.661377 0.373226 0.424228 0.000000
C 0.680637 0.364470 0.443599 0.000000
H 0.694078 0.351026 0.435304 0.000000
H 0.671117 0.355267 0.459575 0.000000
H 0.691265 0.380686 0.451011 0.000000
C 0.647158 0.350152 0.414449 0.000000
H 0.660432 0.335649 0.407843 0.000000
H 0.634811 0.354962 0.398544 0.000000
H 0.635486 0.342068 0.429575 0.000000
C 0.675455 0.386516 0.402883 0.000000
H 0.662979 0.391142 0.387053 0.000000
H 0.690464 0.374301 0.395397 0.000000
H 0.684036 0.404061 0.409840 0.000000
C 0.603244 0.505318 0.393944 0.000000
C 0.618939 0.548591 0.387525 0.000000
C 0.644224 0.544976 0.400859 0.000000
H 0.653133 0.563305 0.404691 0.000000
H 0.657039 0.533784 0.388991 0.000000
H 0.642059 0.535367 0.419056 0.000000
C 0.623126 0.565602 0.364777 0.000000
H 0.605364 0.568166 0.354375 0.000000
H 0.636881 0.557032 0.351831 0.000000
H 0.630150 0.584262 0.370520 0.000000
C 0.599916 0.561427 0.404934 0.000000
H 0.596987 0.550745 0.422388 0.000000
H 0.581692 0.563487 0.395350 0.000000
H 0.606623 0.580313 0.410301 0.000000
C 0.547145 0.485029 0.337588 0.000000
C 0.578162 0.495599 0.304763 0.000000
C 0.597201 0.480958 0.289050 0.000000
H 0.607845 0.493594 0.276490 0.000000
H 0.587528 0.466724 0.277466 0.000000
H 0.610646 0.471091 0.301383 0.000000
C 0.592455 0.515223 0.320203 0.000000
H 0.602531 0.528406 0.307781 0.000000
H 0.606309 0.505841 0.332452 0.000000
H 0.579740 0.526206 0.332213 0.000000
C 0.559441 0.508162 0.286755 0.000000
H 0.547195 0.493854 0.278098 0.000000
H 0.569499 0.518230 0.271654 0.000000
H 0.547604 0.522161 0.296309 0.000000
C 0.444709 0.439256 0.352246 0.000000
C 0.417118 0.408192 0.331729 0.000000
C 0.438009 0.394629 0.317229 0.000000
H 0.444298 0.406284 0.301279 0.000000
H 0.431168 0.376474 0.309887 0.000000
H 0.454347 0.390566 0.329235 0.000000
C 0.410243 0.393874 0.355703 0.000000
H 0.402068 0.375382 0.351026 0.000000
H 0.396343 0.404670 0.366635 0.000000
H 0.426736 0.390421 0.367702 0.000000
C 0.393815 0.409389 0.315027 0.000000
H 0.387179 0.390382 0.309990 0.000000
H 0.398007 0.419777 0.297557 0.000000
H 0.378456 0.419325 0.324844 0.000000
C 0.398961 0.491381 0.356323 0.000000
C 0.412827 0.513232 0.317772 0.000000
C 0.386574 0.521141 0.308957 0.000000
H 0.373073 0.505500 0.310015 0.000000
H 0.387076 0.527486 0.289227 0.000000
H 0.379505 0.536641 0.320736 0.000000
C 0.421589 0.489473 0.303990 0.000000
H 0.423730 0.493211 0.283701 0.000000
H 0.408049 0.473949 0.305883 0.000000
H 0.439882 0.483193 0.311461 0.000000
C 0.431239 0.534373 0.311567 0.000000
H 0.431952 0.537933 0.291131 0.000000
H 0.450337 0.529412 0.318023 0.000000
H 0.425655 0.551933 0.321049 0.000000
C 0.376015 0.567096 0.440593 0.000000
C 0.351870 0.590108 0.472795 0.000000
C 0.340926 0.616510 0.475208 0.000000
H 0.326892 0.619879 0.460293 0.000000
H 0.355911 0.630723 0.473195 0.000000
H 0.331770 0.619212 0.493634 0.000000
C 0.330289 0.571156 0.475228 0.000000
H 0.337198 0.551733 0.477048 0.000000
H 0.317920 0.572245 0.458609 0.000000
H 0.318983 0.575125 0.492148 0.000000
C 0.371216 0.586441 0.493835 0.000000
H 0.386879 0.599811 0.491518 0.000000
H 0.378982 0.567245 0.493974 0.000000
H 0.362482 0.589714 0.512369 0.000000
O 0.567482 0.392097 0.587488 0.000000
O 0.561941 0.406214 0.627464 0.000000
O 0.597577 0.383432 0.619753 0.000000
O 0.478462 0.381372 0.596124 0.000000
O 0.485010 0.411746 0.629492 0.000000
O 0.456051 0.380005 0.631794 0.000000
O 0.427387 0.385595 0.567192 0.000000
O 0.403761 0.360812 0.596183 0.000000
O 0.428793 0.342910 0.566178 0.000000
O 0.425254 0.367870 0.478544 0.000000
O 0.395794 0.371117 0.444772 0.000000
O 0.395735 0.398805 0.477625 0.000000
O 0.471908 0.357278 0.447469 0.000000
O 0.450850 0.319247 0.459101 0.000000
O 0.487935 0.331098 0.477274 0.000000
O 0.559595 0.373401 0.433935 0.000000
O 0.538885 0.383843 0.394631 0.000000
O 0.577950 0.366038 0.396683 0.000000
O 0.607291 0.414634 0.439418 0.000000
O 0.644806 0.390078 0.437098 0.000000
O 0.621254 0.398838 0.402257 0.000000
O 0.592471 0.483863 0.383151 0.000000
O 0.609406 0.525321 0.377940 0.000000
O 0.607103 0.506443 0.416463 0.000000
O 0.539221 0.467553 0.355465 0.000000
O 0.566105 0.477692 0.320861 0.000000
O 0.537931 0.505940 0.336862 0.000000
O 0.449288 0.464509 0.357638 0.000000
O 0.423860 0.433637 0.337182 0.000000
O 0.458045 0.422842 0.360885 0.000000
O 0.401348 0.487235 0.382051 0.000000
O 0.413510 0.510010 0.344478 0.000000
O 0.384836 0.477945 0.344518 0.000000
O 0.390017 0.568426 0.418357 0.000000
O 0.363424 0.588846 0.448500 0.000000
O 0.374943 0.547684 0.452595 0.000000
C 0.437831 0.565799 0.444870 0.000000
H 0.422877 0.579888 0.447251 0.000000
C 0.460514 0.579947 0.435200 0.000000
C 0.456841 0.600040 0.418604 0.000000
C 0.477325 0.612987 0.408990 0.000000
H 0.474366 0.628514 0.396395 0.000000
C 0.501608 0.605993 0.415254 0.000000
C 0.505803 0.586012 0.431875 0.000000
C 0.532532 0.579039 0.438716 0.000000
H 0.544130 0.582702 0.421958 0.000000
C 0.541957 0.595003 0.460206 0.000000
C 0.561745 0.612014 0.456590 0.000000
C 0.571981 0.624438 0.477284 0.000000
H 0.587804 0.636805 0.474936 0.000000
C 0.563243 0.619741 0.501395 0.000000
C 0.543474 0.602764 0.505235 0.000000
C 0.536509 0.594226 0.531441 0.000000
H 0.549527 0.602997 0.544945 0.000000
C 0.510345 0.602838 0.538677 0.000000
C 0.507329 0.626661 0.549423 0.000000
C 0.483962 0.634281 0.558023 0.000000
H 0.482080 0.652159 0.567304 0.000000
C 0.463119 0.618817 0.555511 0.000000
C 0.465136 0.595824 0.542880 0.000000
C 0.441544 0.580289 0.538955 0.000000
H 0.426693 0.593756 0.533650 0.000000
C 0.433925 0.566631 0.562656 0.000000
C 0.409595 0.569195 0.572491 0.000000
C 0.401571 0.552765 0.591357 0.000000
H 0.382526 0.553460 0.598039 0.000000
C 0.417090 0.533693 0.599988 0.000000
C 0.441619 0.531445 0.590688 0.000000
C 0.457448 0.508696 0.596690 0.000000
H 0.448053 0.497379 0.611276 0.000000
C 0.482544 0.516333 0.607836 0.000000
C 0.482991 0.526416 0.632159 0.000000
C 0.505645 0.532646 0.643373 0.000000
H 0.505781 0.540046 0.662189 0.000000
C 0.528101 0.530071 0.630354 0.000000
C 0.528140 0.520931 0.605680 0.000000
C 0.552449 0.520845 0.590824 0.000000
H 0.564998 0.534895 0.599452 0.000000
C 0.565437 0.495562 0.591746 0.000000
C 0.588262 0.492701 0.604614 0.000000
C 0.602049 0.470664 0.601963 0.000000
H 0.619981 0.468971 0.611115 0.000000
C 0.594018 0.451759 0.585957 0.000000
C 0.429343 0.546169 0.426127 0.000000
C 0.485073 0.573115 0.441657 0.000000
H 0.488016 0.557731 0.454194 0.000000
C 0.532245 0.591500 0.484357 0.000000
H 0.517015 0.578536 0.487133 0.000000
C 0.488979 0.587886 0.534835 0.000000
H 0.491008 0.570031 0.525857 0.000000
C 0.450055 0.548583 0.572740 0.000000
H 0.468565 0.546373 0.564947 0.000000
C 0.505332 0.513584 0.594892 0.000000
H 0.505449 0.506388 0.576159 0.000000
C 0.556129 0.475289 0.577811 0.000000
H 0.538354 0.476986 0.568452 0.000000
C 0.440493 0.554022 0.471045 0.000000
H 0.455508 0.539780 0.471704 0.000000
H 0.422771 0.543993 0.475111 0.000000
C 0.444738 0.573551 0.491575 0.000000
H 0.430621 0.588636 0.489781 0.000000
H 0.463544 0.581994 0.489470 0.000000
C 0.442315 0.561269 0.517282 0.000000
H 0.457276 0.547180 0.519947 0.000000
H 0.424370 0.550766 0.517684 0.000000
C 0.541699 0.565969 0.534427 0.000000
H 0.560917 0.562400 0.527296 0.000000
H 0.528971 0.554493 0.522791 0.000000
C 0.540588 0.557138 0.561664 0.000000
H 0.521076 0.558432 0.568602 0.000000
H 0.552588 0.569347 0.573413 0.000000
C 0.549900 0.530071 0.563561 0.000000
H 0.537519 0.517765 0.552397 0.000000
H 0.568720 0.529014 0.554827 0.000000
C 0.458316 0.491865 0.573234 0.000000
H 0.469356 0.500485 0.557962 0.000000
H 0.438923 0.490372 0.565933 0.000000
C 0.467598 0.465338 0.578618 0.000000
H 0.457460 0.457707 0.595009 0.000000
H 0.487826 0.465568 0.583113 0.000000
C 0.537219 0.551158 0.444221 0.000000
H 0.526148 0.544410 0.460383 0.000000
H 0.557174 0.549257 0.449709 0.000000
C 0.425290 0.605843 0.387698 0.000000
C 0.391507 0.611930 0.356528 0.000000
C 0.408430 0.621420 0.335211 0.000000
H 0.397999 0.621836 0.317281 0.000000
H 0.424843 0.609164 0.332296 0.000000
H 0.415106 0.640586 0.339400 0.000000
C 0.366844 0.626562 0.355624 0.000000
H 0.354384 0.620631 0.371124 0.000000
H 0.356916 0.623431 0.337670 0.000000
H 0.370444 0.646878 0.357741 0.000000
C 0.385489 0.583972 0.353282 0.000000
H 0.402578 0.572361 0.353418 0.000000
H 0.375766 0.580742 0.335248 0.000000
H 0.373194 0.577432 0.368650 0.000000
C 0.527615 0.609498 0.380247 0.000000
C 0.520287 0.578692 0.346116 0.000000
C 0.514423 0.598188 0.325775 0.000000
H 0.495414 0.605962 0.328576 0.000000
H 0.515301 0.589537 0.306930 0.000000
H 0.527979 0.613821 0.325945 0.000000
C 0.547475 0.569517 0.344057 0.000000
H 0.561022 0.585088 0.345135 0.000000
H 0.550490 0.560086 0.325851 0.000000
H 0.551694 0.556098 0.359276 0.000000
C 0.502823 0.556205 0.342407 0.000000
H 0.505704 0.547439 0.323821 0.000000
H 0.483014 0.562167 0.343894 0.000000
H 0.506280 0.541934 0.357085 0.000000
C 0.579854 0.637816 0.424346 0.000000
C 0.604390 0.662527 0.393717 0.000000
C 0.582266 0.677704 0.383246 0.000000
H 0.570858 0.665904 0.370563 0.000000
H 0.589124 0.694111 0.372567 0.000000
H 0.570004 0.684885 0.398277 0.000000
C 0.618982 0.677766 0.413338 0.000000
H 0.628119 0.694138 0.404488 0.000000
H 0.633629 0.665971 0.422092 0.000000
H 0.606612 0.684990 0.428253 0.000000
C 0.622146 0.656323 0.372052 0.000000
H 0.629624 0.673584 0.363304 0.000000
H 0.612221 0.645321 0.357535 0.000000
H 0.638109 0.644955 0.378891 0.000000
C 0.595506 0.620602 0.531860 0.000000
C 0.624034 0.617406 0.568243 0.000000
C 0.615771 0.590693 0.575325 0.000000
H 0.615168 0.578185 0.558862 0.000000
H 0.596905 0.591079 0.583909 0.000000
H 0.629037 0.582280 0.588884 0.000000
C 0.648859 0.617061 0.553661 0.000000
H 0.653568 0.636200 0.547204 0.000000
H 0.647978 0.604649 0.537161 0.000000
H 0.664290 0.610218 0.565725 0.000000
C 0.628072 0.632323 0.592419 0.000000
H 0.634780 0.651463 0.588094 0.000000
H 0.642009 0.623080 0.604736 0.000000
H 0.610196 0.634109 0.602713 0.000000
C 0.528489 0.664284 0.538625 0.000000
C 0.552584 0.701779 0.525839 0.000000
C 0.556127 0.693604 0.498440 0.000000
H 0.538682 0.685939 0.490360 0.000000
H 0.570845 0.679067 0.497139 0.000000
H 0.561787 0.709754 0.486710 0.000000
C 0.576789 0.714474 0.534627 0.000000
H 0.581210 0.731085 0.523006 0.000000
H 0.592688 0.701188 0.533477 0.000000
H 0.574934 0.720536 0.554388 0.000000
C 0.531021 0.720739 0.528219 0.000000
H 0.513650 0.713869 0.519368 0.000000
H 0.535953 0.738579 0.518833 0.000000
H 0.527130 0.724669 0.548214 0.000000
C 0.440380 0.625421 0.592450 0.000000
C 0.460133 0.610082 0.631695 0.000000
C 0.456952 0.634138 0.647195 0.000000
H 0.470667 0.648438 0.641092 0.000000
H 0.459998 0.630217 0.667351 0.000000
H 0.437914 0.642043 0.645323 0.000000
C 0.439359 0.591120 0.637694 0.000000
H 0.440989 0.574733 0.625198 0.000000
H 0.420528 0.599344 0.635196 0.000000
H 0.440792 0.584615 0.657348 0.000000
C 0.485406 0.598279 0.638352 0.000000
H 0.500781 0.611757 0.634854 0.000000
H 0.488800 0.581634 0.626460 0.000000
H 0.486100 0.592487 0.658262 0.000000
C 0.375318 0.598524 0.575235 0.000000
C 0.338093 0.626177 0.575752 0.000000
C 0.318562 0.634515 0.556445 0.000000
H 0.305002 0.647854 0.564718 0.000000
H 0.308112 0.618104 0.549249 0.000000
H 0.327858 0.643711 0.540322 0.000000
C 0.352067 0.649502 0.585214 0.000000
H 0.363188 0.657864 0.569848 0.000000
H 0.364890 0.644945 0.600790 0.000000
H 0.338657 0.663715 0.592174 0.000000
C 0.324334 0.612971 0.597359 0.000000
H 0.316231 0.595070 0.590796 0.000000
H 0.308984 0.624944 0.604570 0.000000
H 0.336911 0.609071 0.613303 0.000000
C 0.396542 0.494857 0.606101 0.000000
C 0.381368 0.451387 0.612272 0.000000
C 0.356107 0.454825 0.598861 0.000000
H 0.347194 0.436430 0.595289 0.000000
H 0.358289 0.464110 0.580500 0.000000
H 0.343287 0.466194 0.610539 0.000000
C 0.377284 0.434261 0.634927 0.000000
H 0.370466 0.415544 0.629082 0.000000
H 0.363391 0.442637 0.647842 0.000000
H 0.395029 0.431835 0.645395 0.000000
C 0.400611 0.438878 0.594881 0.000000
H 0.403769 0.449878 0.577664 0.000000
H 0.394002 0.420075 0.589117 0.000000
H 0.418739 0.436653 0.604666 0.000000
C 0.452693 0.514748 0.662473 0.000000
C 0.421417 0.504339 0.695123 0.000000
C 0.402415 0.519122 0.710749 0.000000
H 0.391658 0.506576 0.723284 0.000000
H 0.389059 0.529039 0.698358 0.000000
H 0.412137 0.533315 0.722326 0.000000
C 0.407043 0.484836 0.679590 0.000000
H 0.419701 0.473988 0.667381 0.000000
H 0.393059 0.494264 0.667547 0.000000
H 0.397129 0.471479 0.691994 0.000000
C 0.439936 0.491596 0.713169 0.000000
H 0.452390 0.505769 0.721791 0.000000
H 0.451603 0.477400 0.703675 0.000000
H 0.429757 0.481715 0.728302 0.000000
C 0.555221 0.560940 0.647301 0.000000
C 0.582957 0.592357 0.667148 0.000000
C 0.562165 0.606316 0.681399 0.000000
H 0.556007 0.595126 0.697728 0.000000
H 0.545705 0.610042 0.669419 0.000000
H 0.569045 0.624678 0.688190 0.000000
C 0.589895 0.606175 0.642873 0.000000
H 0.573451 0.609230 0.630685 0.000000
H 0.603951 0.595240 0.632265 0.000000
H 0.597900 0.624828 0.647200 0.000000
C 0.606260 0.591379 0.683846 0.000000
H 0.612945 0.610447 0.688572 0.000000
H 0.621589 0.581241 0.674218 0.000000
H 0.602041 0.581285 0.701487 0.000000
C 0.600778 0.508861 0.643696 0.000000
C 0.586976 0.486933 0.682255 0.000000
C 0.613288 0.479232 0.691051 0.000000
H 0.626681 0.494945 0.689901 0.000000
H 0.620427 0.463702 0.679341 0.000000
H 0.612837 0.472959 0.710812 0.000000
C 0.578021 0.510585 0.696104 0.000000
H 0.575878 0.506749 0.716367 0.000000
H 0.559699 0.516776 0.688654 0.000000
H 0.591465 0.526213 0.694318 0.000000
C 0.568710 0.465632 0.688334 0.000000
H 0.574463 0.448170 0.678766 0.000000
H 0.549593 0.470475 0.681846 0.000000
H 0.568020 0.461967 0.708753 0.000000
C 0.624158 0.432882 0.559556 0.000000
C 0.647990 0.409833 0.527153 0.000000
C 0.658941 0.383426 0.524629 0.000000
H 0.667591 0.380630 0.505979 0.000000
H 0.644060 0.369212 0.527180 0.000000
H 0.673385 0.380204 0.539165 0.000000
C 0.669494 0.428801 0.524284 0.000000
H 0.662557 0.448204 0.522488 0.000000
H 0.680542 0.424773 0.507193 0.000000
H 0.682140 0.427792 0.540694 0.000000
C 0.628293 0.413405 0.506400 0.000000
H 0.636841 0.410494 0.487710 0.000000
H 0.620194 0.432433 0.506608 0.000000
H 0.612908 0.399734 0.508770 0.000000
O 0.432593 0.608042 0.412815 0.000000
O 0.438173 0.594314 0.372717 0.000000
O 0.402354 0.616731 0.380695 0.000000
O 0.521603 0.618581 0.404113 0.000000
O 0.515041 0.588306 0.370652 0.000000
O 0.543939 0.620102 0.368399 0.000000
O 0.572820 0.614016 0.432879 0.000000
O 0.596195 0.638962 0.403737 0.000000
O 0.571252 0.656684 0.433938 0.000000
O 0.574370 0.632216 0.521487 0.000000
O 0.604818 0.630291 0.554512 0.000000
O 0.605262 0.602654 0.521578 0.000000
O 0.528062 0.642246 0.552939 0.000000
O 0.548889 0.680590 0.542012 0.000000
O 0.511983 0.668764 0.523457 0.000000
O 0.440378 0.626119 0.566212 0.000000
O 0.461111 0.615357 0.605377 0.000000
O 0.422164 0.633448 0.603568 0.000000
O 0.392634 0.585329 0.560566 0.000000
O 0.354766 0.609426 0.562909 0.000000
O 0.378553 0.601090 0.597707 0.000000
O 0.407475 0.516210 0.616935 0.000000
O 0.390625 0.474724 0.622003 0.000000
O 0.392293 0.493981 0.583647 0.000000
O 0.460730 0.532205 0.644624 0.000000
O 0.433658 0.522167 0.679098 0.000000
O 0.461826 0.493832 0.663262 0.000000
O 0.550631 0.535577 0.642370 0.000000
O 0.576091 0.566844 0.662222 0.000000
O 0.541876 0.577220 0.638381 0.000000
O 0.598713 0.512681 0.617875 0.000000
O 0.586278 0.490205 0.655545 0.000000
O 0.614576 0.522591 0.655544 0.000000
O 0.609954 0.431454 0.581640 0.000000
O 0.636794 0.411171 0.551632 0.000000
O 0.625390 0.452393 0.547704 0.000000
