data_NC2_PM
_symmetry_space_group_name_H-M   'P 1'
_cell_length_a 45.572950
_cell_length_b 45.572950
_cell_length_c 45.572950
_cell_angle_alpha 90.000000
_cell_angle_beta 90.000000
_cell_angle_gamma 90.000000
_symmetry_Int_Tables_number 1

loop_
_symmetry_equiv_pos_as_xyz
 'x, y, z'

loop_
_atom_site_label
_atom_site_fract_x
_atom_site_fract_y
_atom_site_fract_z
_atom_site_charge
O 0.439248 0.596197 0.362643 0.000000
H 0.441095 0.602571 0.341429 0.000000
C 0.470547 0.473694 0.374540 0.000000
O 0.417903 0.665422 0.511881 0.000000
H 0.422599 0.661131 0.533004 0.000000
C 0.470810 0.482572 0.344886 0.000000
C 0.497521 0.485829 0.330183 0.000000
H 0.497686 0.491856 0.307200 0.000000
O 0.543923 0.607195 0.360547 0.000000
H 0.562304 0.610808 0.372275 0.000000
C 0.524178 0.481788 0.344552 0.000000
O 0.549565 0.485070 0.327570 0.000000
H 0.568266 0.477539 0.336650 0.000000
C 0.524672 0.475214 0.375079 0.000000
C 0.497501 0.470215 0.389296 0.000000
H 0.496906 0.464600 0.412175 0.000000
C 0.553975 0.475015 0.391801 0.000000
H 0.567301 0.458086 0.380706 0.000000
C 0.553066 0.466140 0.424676 0.000000
H 0.536052 0.478631 0.436848 0.000000
H 0.574378 0.472797 0.434605 0.000000
O 0.444548 0.488726 0.330214 0.000000
H 0.447253 0.495095 0.309075 0.000000
C 0.568622 0.505227 0.390080 0.000000
C 0.597796 0.509509 0.379844 0.000000
C 0.609853 0.537685 0.379802 0.000000
H 0.632006 0.540664 0.371653 0.000000
C 0.594859 0.561513 0.392097 0.000000
O 0.608728 0.588804 0.394505 0.000000
H 0.629340 0.589208 0.386165 0.000000
C 0.566308 0.557554 0.403270 0.000000
C 0.553212 0.529630 0.401251 0.000000
H 0.531278 0.526532 0.409889 0.000000
C 0.550850 0.581819 0.420443 0.000000
H 0.563890 0.602350 0.419622 0.000000
O 0.547991 0.659404 0.569083 0.000000
H 0.545647 0.675571 0.584196 0.000000
C 0.520933 0.588566 0.406347 0.000000
O 0.416786 0.635135 0.411064 0.000000
H 0.409182 0.655808 0.407971 0.000000
C 0.519288 0.598992 0.376932 0.000000
C 0.492178 0.601226 0.362883 0.000000
H 0.491464 0.608620 0.340310 0.000000
O 0.444211 0.649455 0.583269 0.000000
H 0.428288 0.634130 0.584463 0.000000
C 0.466084 0.594280 0.377429 0.000000
C 0.466981 0.585472 0.406977 0.000000
C 0.494297 0.582905 0.421176 0.000000
H 0.494307 0.575883 0.443744 0.000000
C 0.438900 0.577905 0.423430 0.000000
H 0.419637 0.579737 0.408550 0.000000
C 0.438758 0.545379 0.433501 0.000000
H 0.418631 0.541190 0.446634 0.000000
H 0.458060 0.540472 0.447547 0.000000
C 0.439206 0.524205 0.407267 0.000000
H 0.459221 0.528408 0.394003 0.000000
H 0.419665 0.528215 0.393205 0.000000
C 0.433661 0.600337 0.447770 0.000000
C 0.422808 0.628316 0.440397 0.000000
C 0.418067 0.649203 0.462354 0.000000
H 0.409828 0.670727 0.456546 0.000000
C 0.423586 0.642870 0.491816 0.000000
C 0.434329 0.614680 0.499963 0.000000
C 0.439787 0.594085 0.477412 0.000000
H 0.449015 0.573071 0.482764 0.000000
C 0.439577 0.606647 0.532301 0.000000
H 0.419969 0.614763 0.543995 0.000000
C 0.439690 0.573200 0.538729 0.000000
H 0.458675 0.562258 0.528115 0.000000
H 0.419219 0.563461 0.529652 0.000000
C 0.441461 0.566397 0.571700 0.000000
H 0.423362 0.577887 0.583358 0.000000
H 0.462723 0.574350 0.580530 0.000000
C 0.467894 0.620753 0.543338 0.000000
C 0.468674 0.641707 0.566391 0.000000
C 0.495137 0.655300 0.573499 0.000000
H 0.495298 0.672070 0.590342 0.000000
C 0.521543 0.646343 0.560640 0.000000
C 0.521655 0.623240 0.540045 0.000000
C 0.494589 0.611910 0.530458 0.000000
H 0.493864 0.595444 0.513506 0.000000
O 0.616103 0.486679 0.370590 0.000000
H 0.611920 0.466905 0.379588 0.000000
C 0.551105 0.610031 0.530860 0.000000
H 0.564511 0.628384 0.522042 0.000000
C 0.550467 0.586044 0.506642 0.000000
H 0.534188 0.568647 0.511789 0.000000
H 0.572234 0.574908 0.506982 0.000000
O 0.612300 0.550328 0.623078 0.000000
H 0.632540 0.558580 0.627204 0.000000
C 0.545847 0.597680 0.475235 0.000000
H 0.561991 0.615414 0.470808 0.000000
H 0.523482 0.606956 0.472760 0.000000
C 0.550794 0.572474 0.453228 0.000000
H 0.572890 0.563167 0.458122 0.000000
H 0.535112 0.554263 0.457291 0.000000
C 0.565954 0.596783 0.557819 0.000000
C 0.593886 0.606377 0.566952 0.000000
C 0.608477 0.591431 0.589514 0.000000
H 0.630180 0.598548 0.596114 0.000000
C 0.596055 0.566546 0.602681 0.000000
C 0.567586 0.557350 0.594507 0.000000
C 0.552635 0.573045 0.572521 0.000000
H 0.531120 0.565681 0.565601 0.000000
C 0.554738 0.528652 0.606049 0.000000
H 0.570084 0.518936 0.622265 0.000000
O 0.607302 0.630199 0.553016 0.000000
H 0.627404 0.635210 0.561107 0.000000
C 0.554390 0.505903 0.580822 0.000000
H 0.576498 0.506553 0.570415 0.000000
H 0.538662 0.511923 0.563242 0.000000
O 0.553175 0.372383 0.620834 0.000000
H 0.570975 0.374058 0.607871 0.000000
C 0.525520 0.533348 0.622265 0.000000
O 0.609884 0.359803 0.479144 0.000000
H 0.629571 0.350615 0.483888 0.000000
C 0.525422 0.541751 0.652328 0.000000
C 0.499129 0.542877 0.667861 0.000000
H 0.499644 0.548656 0.690913 0.000000
O 0.448232 0.377057 0.624437 0.000000
H 0.451050 0.362025 0.640594 0.000000
C 0.472303 0.537113 0.654249 0.000000
O 0.446289 0.538324 0.670530 0.000000
H 0.449251 0.543344 0.692002 0.000000
C 0.471390 0.530247 0.624127 0.000000
C 0.498120 0.528106 0.608497 0.000000
H 0.497580 0.522147 0.585676 0.000000
C 0.441435 0.524994 0.609825 0.000000
H 0.425773 0.540163 0.620733 0.000000
C 0.438901 0.533237 0.576969 0.000000
H 0.416880 0.526243 0.569068 0.000000
H 0.455128 0.521192 0.563417 0.000000
O 0.550826 0.548949 0.668011 0.000000
H 0.568600 0.553536 0.655761 0.000000
C 0.431060 0.493598 0.614668 0.000000
C 0.406182 0.487697 0.632168 0.000000
C 0.394687 0.459204 0.633203 0.000000
H 0.375479 0.454809 0.646465 0.000000
C 0.406895 0.436583 0.616330 0.000000
O 0.394003 0.408730 0.616391 0.000000
H 0.376080 0.407067 0.629473 0.000000
C 0.431965 0.442143 0.598965 0.000000
C 0.444519 0.470365 0.599406 0.000000
H 0.463857 0.474711 0.586310 0.000000
C 0.443961 0.418812 0.578260 0.000000
H 0.428982 0.399577 0.578485 0.000000
O 0.447425 0.331432 0.451730 0.000000
H 0.450189 0.310300 0.445362 0.000000
C 0.473734 0.407726 0.588960 0.000000
O 0.613872 0.391935 0.580366 0.000000
H 0.633942 0.382374 0.579938 0.000000
C 0.474446 0.387056 0.611959 0.000000
C 0.501305 0.376288 0.622066 0.000000
H 0.501697 0.360046 0.639430 0.000000
O 0.553799 0.331989 0.454326 0.000000
H 0.551556 0.310589 0.448716 0.000000
C 0.527729 0.385599 0.609905 0.000000
C 0.527850 0.407423 0.587589 0.000000
C 0.500526 0.417807 0.577131 0.000000
H 0.500086 0.433866 0.559888 0.000000
C 0.556848 0.420171 0.576232 0.000000
H 0.572209 0.420449 0.595115 0.000000
C 0.555902 0.452667 0.566272 0.000000
H 0.540590 0.456145 0.547674 0.000000
H 0.578126 0.458070 0.557665 0.000000
C 0.548774 0.474281 0.591183 0.000000
H 0.563008 0.469370 0.610387 0.000000
H 0.525511 0.471793 0.597985 0.000000
C 0.569790 0.401551 0.551581 0.000000
C 0.597909 0.388794 0.554326 0.000000
C 0.610326 0.373821 0.530505 0.000000
H 0.631633 0.363576 0.532926 0.000000
C 0.596315 0.373353 0.503134 0.000000
C 0.569025 0.387493 0.499626 0.000000
C 0.555295 0.399952 0.524342 0.000000
H 0.534123 0.410405 0.521797 0.000000
C 0.556306 0.392668 0.469142 0.000000
H 0.571468 0.383352 0.452502 0.000000
C 0.556129 0.425953 0.462367 0.000000
H 0.578422 0.434504 0.467541 0.000000
H 0.540797 0.438113 0.476833 0.000000
C 0.549671 0.432988 0.429978 0.000000
H 0.527182 0.425691 0.424146 0.000000
H 0.565500 0.420828 0.415952 0.000000
C 0.527033 0.376835 0.465374 0.000000
C 0.527124 0.346863 0.457701 0.000000
C 0.500601 0.332066 0.453274 0.000000
H 0.500856 0.309171 0.446961 0.000000
C 0.473713 0.346509 0.456778 0.000000
C 0.473094 0.376277 0.465340 0.000000
C 0.499875 0.391222 0.469285 0.000000
H 0.499515 0.414033 0.475279 0.000000
O 0.392657 0.510270 0.647978 0.000000
H 0.374975 0.503731 0.659775 0.000000
C 0.443482 0.391501 0.469139 0.000000
H 0.428615 0.374684 0.478153 0.000000
C 0.442292 0.416292 0.492424 0.000000
H 0.419773 0.425773 0.491879 0.000000
H 0.457509 0.434558 0.487283 0.000000
O 0.405728 0.428911 0.354846 0.000000
H 0.419917 0.441952 0.344005 0.000000
C 0.448343 0.405213 0.523675 0.000000
H 0.471484 0.397706 0.525388 0.000000
H 0.433683 0.386320 0.528476 0.000000
C 0.442611 0.429740 0.546095 0.000000
H 0.457727 0.448390 0.542119 0.000000
H 0.420058 0.438323 0.542253 0.000000
C 0.432149 0.402213 0.439456 0.000000
C 0.409321 0.387625 0.424025 0.000000
C 0.402025 0.396723 0.395757 0.000000
H 0.385678 0.384591 0.383492 0.000000
C 0.414469 0.421719 0.383349 0.000000
C 0.434715 0.438790 0.399705 0.000000
C 0.444984 0.427297 0.426565 0.000000
H 0.462089 0.438777 0.438232 0.000000
C 0.441486 0.470545 0.391030 0.000000
H 0.423241 0.477649 0.376568 0.000000
O 0.393451 0.363926 0.435324 0.000000
H 0.389846 0.364620 0.457159 0.000000
C 0.439226 0.492015 0.417351 0.000000
H 0.457565 0.488613 0.433028 0.000000
H 0.418444 0.487676 0.429414 0.000000
