data_RCC1d_PM
_symmetry_space_group_name_H-M   'P 1'
_cell_length_a 48.002262
_cell_length_b 48.002262
_cell_length_c 48.002262
_cell_angle_alpha 90.000000
_cell_angle_beta 90.000000
_cell_angle_gamma 90.000000
_symmetry_Int_Tables_number 1

loop_
_symmetry_equiv_pos_as_xyz
 'x, y, z'

loop_
_atom_site_label
_atom_site_fract_x
_atom_site_fract_y
_atom_site_fract_z
_atom_site_charge
N 0.463057 0.499443 0.391836 0.000000
O 0.442626 0.458210 0.382730 0.000000
Br 0.460801 0.506260 0.321474 0.000000
C 0.433526 0.543378 0.422811 0.000000
H 0.420269 0.526363 0.416157 0.000000
C 0.459019 0.548035 0.409256 0.000000
C 0.468440 0.529274 0.385829 0.000000
H 0.490999 0.532186 0.381853 0.000000
H 0.458217 0.536837 0.366892 0.000000
C 0.475730 0.487979 0.417652 0.000000
H 0.471394 0.501967 0.435553 0.000000
H 0.466402 0.467796 0.423973 0.000000
C 0.446739 0.482138 0.375073 0.000000
C 0.433293 0.490836 0.347269 0.000000
C 0.421369 0.465164 0.331887 0.000000
H 0.412318 0.471312 0.311476 0.000000
H 0.438041 0.449601 0.327898 0.000000
H 0.404669 0.454992 0.344340 0.000000
C 0.408861 0.511187 0.351975 0.000000
H 0.414872 0.530541 0.362843 0.000000
H 0.399548 0.517301 0.331703 0.000000
H 0.392434 0.501074 0.364774 0.000000
N 0.479806 0.517006 0.610928 0.000000
O 0.484990 0.562704 0.620169 0.000000
Br 0.480696 0.511967 0.681640 0.000000
C 0.428595 0.495598 0.585029 0.000000
H 0.427035 0.516913 0.592248 0.000000
C 0.449154 0.478014 0.596141 0.000000
C 0.469488 0.488675 0.617664 0.000000
H 0.487451 0.474315 0.619436 0.000000
H 0.458990 0.487253 0.637849 0.000000
C 0.493886 0.520485 0.583573 0.000000
H 0.480984 0.511264 0.566738 0.000000
H 0.496066 0.542655 0.577397 0.000000
C 0.476574 0.540105 0.628329 0.000000
C 0.462980 0.539502 0.657386 0.000000
C 0.467313 0.567579 0.672528 0.000000
H 0.489896 0.572180 0.674826 0.000000
H 0.457419 0.584976 0.660855 0.000000
H 0.457971 0.567003 0.693711 0.000000
C 0.431271 0.534680 0.655353 0.000000
H 0.425517 0.515101 0.644816 0.000000
H 0.421925 0.534096 0.676494 0.000000
H 0.421347 0.551921 0.643518 0.000000
N 0.515249 0.465110 0.392323 0.000000
O 0.532354 0.500643 0.366931 0.000000
Br 0.504176 0.436295 0.328701 0.000000
C 0.551535 0.432205 0.429250 0.000000
H 0.562740 0.445731 0.415086 0.000000
C 0.524023 0.424425 0.423133 0.000000
C 0.509717 0.435106 0.397228 0.000000
H 0.486899 0.431798 0.398792 0.000000
H 0.516356 0.421610 0.380098 0.000000
C 0.507391 0.484547 0.415079 0.000000
H 0.515497 0.476842 0.435312 0.000000
H 0.517095 0.505399 0.412747 0.000000
C 0.527520 0.475666 0.368150 0.000000
C 0.535632 0.458212 0.342493 0.000000
C 0.543562 0.477312 0.317818 0.000000
H 0.562063 0.490302 0.322923 0.000000
H 0.548643 0.464752 0.299032 0.000000
H 0.525976 0.491376 0.312428 0.000000
C 0.561128 0.439622 0.348614 0.000000
H 0.566705 0.427282 0.329848 0.000000
H 0.579343 0.452705 0.354369 0.000000
H 0.557845 0.424732 0.365804 0.000000
N 0.541754 0.518091 0.604321 0.000000
O 0.540170 0.477825 0.628344 0.000000
Br 0.553869 0.545768 0.668284 0.000000
C 0.586195 0.528605 0.563338 0.000000
H 0.589945 0.510657 0.576498 0.000000
C 0.567545 0.549340 0.572116 0.000000
C 0.552340 0.546703 0.599528 0.000000
H 0.534638 0.561522 0.600264 0.000000
H 0.566669 0.554042 0.615664 0.000000
C 0.522638 0.506586 0.582861 0.000000
H 0.531625 0.509583 0.561778 0.000000
H 0.519999 0.483687 0.584619 0.000000
C 0.549016 0.501645 0.627216 0.000000
C 0.567589 0.511219 0.651556 0.000000
C 0.566769 0.489780 0.675575 0.000000
H 0.574950 0.469219 0.668698 0.000000
H 0.579630 0.496970 0.693431 0.000000
H 0.545073 0.486884 0.683113 0.000000
C 0.598282 0.513975 0.642384 0.000000
H 0.611332 0.520925 0.660176 0.000000
H 0.606269 0.493495 0.635089 0.000000
H 0.601528 0.528955 0.625268 0.000000
N 0.613948 0.500181 0.498002 0.000000
O 0.628312 0.496233 0.453520 0.000000
Br 0.681584 0.485167 0.512181 0.000000
C 0.594601 0.553948 0.520516 0.000000
H 0.604887 0.555589 0.500484 0.000000
C 0.599408 0.530518 0.537347 0.000000
C 0.618427 0.507407 0.527697 0.000000
H 0.615277 0.488541 0.540633 0.000000
H 0.639700 0.514145 0.532400 0.000000
C 0.585298 0.491638 0.489982 0.000000
H 0.569866 0.506831 0.498111 0.000000
H 0.581924 0.492000 0.467127 0.000000
C 0.634681 0.501361 0.477625 0.000000
C 0.665446 0.508730 0.483106 0.000000
C 0.683362 0.502723 0.457032 0.000000
H 0.705683 0.507275 0.461210 0.000000
H 0.681632 0.480436 0.450960 0.000000
H 0.676633 0.515745 0.439089 0.000000
C 0.668898 0.539924 0.489965 0.000000
H 0.691194 0.544846 0.493744 0.000000
H 0.661545 0.552847 0.472228 0.000000
H 0.657178 0.546713 0.508546 0.000000
N 0.401533 0.556375 0.491219 0.000000
O 0.390504 0.575371 0.532697 0.000000
Br 0.334178 0.572623 0.476212 0.000000
C 0.442613 0.582180 0.453755 0.000000
H 0.436402 0.595230 0.471107 0.000000
C 0.425459 0.560015 0.445438 0.000000
C 0.398573 0.553887 0.460564 0.000000
H 0.391225 0.532640 0.455407 0.000000
H 0.382813 0.567771 0.451692 0.000000
C 0.423012 0.538561 0.504591 0.000000
H 0.443090 0.540419 0.493270 0.000000
H 0.428103 0.545333 0.526088 0.000000
C 0.385719 0.574427 0.507696 0.000000
C 0.362389 0.593595 0.496807 0.000000
C 0.346223 0.606898 0.521281 0.000000
H 0.360170 0.620005 0.534352 0.000000
H 0.329089 0.620337 0.513404 0.000000
H 0.336867 0.590531 0.534694 0.000000
C 0.374376 0.617639 0.479203 0.000000
H 0.388054 0.631030 0.492233 0.000000
H 0.386964 0.610657 0.461291 0.000000
H 0.357213 0.630753 0.470853 0.000000
N 0.596605 0.440646 0.490552 0.000000
O 0.615422 0.435180 0.533179 0.000000
Br 0.660269 0.418627 0.469051 0.000000
C 0.549837 0.405523 0.472053 0.000000
H 0.559747 0.398383 0.491036 0.000000
C 0.564385 0.423283 0.453925 0.000000
C 0.593527 0.432941 0.460798 0.000000
H 0.599194 0.451087 0.447668 0.000000
H 0.607616 0.416338 0.454055 0.000000
C 0.577686 0.462693 0.501197 0.000000
H 0.555854 0.458079 0.495114 0.000000
H 0.576996 0.463478 0.524286 0.000000
C 0.615665 0.428210 0.508702 0.000000
C 0.637294 0.406057 0.500288 0.000000
C 0.658291 0.401056 0.524180 0.000000
H 0.647631 0.392905 0.543061 0.000000
H 0.674384 0.385640 0.517869 0.000000
H 0.669084 0.420753 0.529784 0.000000
C 0.623270 0.377851 0.493959 0.000000
H 0.607853 0.378757 0.476920 0.000000
H 0.639198 0.362172 0.487984 0.000000
H 0.612151 0.370090 0.512736 0.000000
N 0.388286 0.502994 0.520556 0.000000
O 0.365782 0.492823 0.480685 0.000000
Br 0.323886 0.523676 0.541376 0.000000
C 0.412740 0.458401 0.554830 0.000000
H 0.398872 0.450933 0.538670 0.000000
C 0.410668 0.486078 0.564033 0.000000
C 0.389679 0.505749 0.551301 0.000000
H 0.394905 0.527573 0.556700 0.000000
H 0.369830 0.501851 0.561814 0.000000
C 0.414628 0.507722 0.505037 0.000000
H 0.431836 0.495682 0.514689 0.000000
H 0.413738 0.499821 0.483353 0.000000
C 0.364158 0.495897 0.505904 0.000000
C 0.335253 0.491502 0.519097 0.000000
C 0.312646 0.489111 0.496276 0.000000
H 0.312380 0.508127 0.483080 0.000000
H 0.316459 0.470760 0.482675 0.000000
H 0.291653 0.486729 0.505759 0.000000
C 0.334246 0.464357 0.536275 0.000000
H 0.339182 0.446207 0.522784 0.000000
H 0.349030 0.463949 0.553867 0.000000
H 0.313084 0.461263 0.545130 0.000000
N 0.465651 0.403496 0.549968 0.000000
O 0.503538 0.377294 0.558841 0.000000
Br 0.431166 0.343447 0.563764 0.000000
C 0.450975 0.450398 0.586783 0.000000
H 0.466730 0.436701 0.595370 0.000000
C 0.433186 0.440610 0.565733 0.000000
C 0.436121 0.411366 0.554519 0.000000
H 0.424598 0.409239 0.534628 0.000000
H 0.425088 0.397690 0.569052 0.000000
C 0.482013 0.421568 0.530886 0.000000
H 0.479132 0.443794 0.536535 0.000000
H 0.504798 0.418247 0.532805 0.000000
C 0.478638 0.380854 0.562801 0.000000
C 0.463946 0.359569 0.581806 0.000000
C 0.483150 0.334385 0.587590 0.000000
H 0.489330 0.324157 0.567755 0.000000
H 0.502370 0.340933 0.598767 0.000000
H 0.472305 0.318641 0.600665 0.000000
C 0.456522 0.372547 0.610261 0.000000
H 0.475744 0.379472 0.621121 0.000000
H 0.442664 0.390816 0.608789 0.000000
H 0.445874 0.356914 0.623617 0.000000
N 0.540082 0.606396 0.509161 0.000000
O 0.504115 0.635726 0.515980 0.000000
Br 0.575385 0.666272 0.496182 0.000000
C 0.562975 0.572646 0.555091 0.000000
H 0.548767 0.588824 0.561852 0.000000
C 0.576015 0.574809 0.529012 0.000000
C 0.570119 0.599228 0.510087 0.000000
H 0.577434 0.594643 0.488670 0.000000
H 0.583443 0.616316 0.517210 0.000000
C 0.520689 0.583877 0.500531 0.000000
H 0.525114 0.564559 0.512430 0.000000
H 0.498655 0.588635 0.505619 0.000000
C 0.529356 0.632525 0.516170 0.000000
C 0.547021 0.658089 0.524274 0.000000
C 0.528763 0.684607 0.525240 0.000000
H 0.541623 0.703203 0.530313 0.000000
H 0.518694 0.688310 0.504723 0.000000
H 0.512212 0.682763 0.541344 0.000000
C 0.560041 0.654485 0.553416 0.000000
H 0.543395 0.652105 0.569343 0.000000
H 0.573763 0.636127 0.555256 0.000000
H 0.572683 0.673082 0.558871 0.000000
N 0.477467 0.388735 0.490498 0.000000
O 0.431030 0.382398 0.488036 0.000000
Br 0.477556 0.318738 0.501286 0.000000
C 0.509731 0.406696 0.441443 0.000000
H 0.488552 0.400454 0.436712 0.000000
C 0.522333 0.397571 0.466197 0.000000
C 0.506631 0.379382 0.486506 0.000000
H 0.517354 0.379176 0.506950 0.000000
H 0.508472 0.357994 0.478848 0.000000
C 0.473438 0.417813 0.500342 0.000000
H 0.485953 0.432371 0.487447 0.000000
H 0.451717 0.425217 0.497638 0.000000
C 0.454164 0.372113 0.485201 0.000000
C 0.455164 0.341412 0.475886 0.000000
C 0.425804 0.328236 0.477089 0.000000
H 0.411270 0.338912 0.462539 0.000000
H 0.426632 0.305841 0.471205 0.000000
H 0.417138 0.329631 0.498513 0.000000
C 0.465498 0.338748 0.445575 0.000000
H 0.486792 0.346744 0.442278 0.000000
H 0.465499 0.316539 0.439041 0.000000
H 0.451521 0.350498 0.431342 0.000000
N 0.516456 0.601698 0.451621 0.000000
O 0.561346 0.605075 0.438411 0.000000
Br 0.516458 0.671358 0.439437 0.000000
C 0.475942 0.570262 0.417798 0.000000
H 0.495549 0.574071 0.407281 0.000000
C 0.468088 0.587132 0.440343 0.000000
C 0.486815 0.610339 0.450347 0.000000
H 0.480145 0.617546 0.471242 0.000000
H 0.483004 0.628103 0.436608 0.000000
C 0.523025 0.577199 0.469368 0.000000
H 0.508564 0.559794 0.464575 0.000000
H 0.543953 0.568435 0.465056 0.000000
C 0.537890 0.614861 0.436969 0.000000
C 0.534339 0.641079 0.418827 0.000000
C 0.563047 0.652985 0.410367 0.000000
H 0.575526 0.658178 0.429166 0.000000
H 0.574978 0.637762 0.397626 0.000000
H 0.560551 0.672332 0.397911 0.000000
C 0.518509 0.634390 0.391677 0.000000
H 0.516215 0.653523 0.378854 0.000000
H 0.530225 0.618722 0.379285 0.000000
H 0.497428 0.625895 0.395077 0.000000
