data_RCC1b_PM
_symmetry_space_group_name_H-M   'P 1'
_cell_length_a 54.877037
_cell_length_b 54.877037
_cell_length_c 54.877037
_cell_angle_alpha 90.000000
_cell_angle_beta 90.000000
_cell_angle_gamma 90.000000
_symmetry_Int_Tables_number 1

loop_
_symmetry_equiv_pos_as_xyz
 'x, y, z'

loop_
_atom_site_label
_atom_site_fract_x
_atom_site_fract_y
_atom_site_fract_z
_atom_site_charge
N 0.594496 0.510279 0.516108 0.000000
O 0.598779 0.521564 0.555471 0.000000
C 0.583419 0.457506 0.504533 0.000000
H 0.589600 0.459255 0.523196 0.000000
C 0.589503 0.475574 0.487523 0.000000
C 0.604945 0.496992 0.495063 0.000000
H 0.623147 0.489330 0.499362 0.000000
H 0.607451 0.509879 0.479648 0.000000
C 0.568328 0.516975 0.515651 0.000000
H 0.562096 0.524813 0.533225 0.000000
H 0.556983 0.500458 0.512919 0.000000
C 0.608610 0.515782 0.536365 0.000000
C 0.635662 0.515185 0.535980 0.000000
C 0.648441 0.505098 0.555738 0.000000
H 0.638457 0.497071 0.570788 0.000000
C 0.674031 0.505070 0.555999 0.000000
C 0.686865 0.494648 0.575528 0.000000
H 0.677237 0.486490 0.590704 0.000000
C 0.712341 0.494664 0.575537 0.000000
H 0.722165 0.486557 0.590599 0.000000
C 0.725166 0.505105 0.556185 0.000000
H 0.744884 0.505075 0.556315 0.000000
C 0.712605 0.515584 0.536660 0.000000
H 0.722866 0.523614 0.521801 0.000000
C 0.687039 0.515604 0.536368 0.000000
C 0.674239 0.525987 0.516864 0.000000
H 0.683880 0.534246 0.501749 0.000000
C 0.648786 0.525797 0.516711 0.000000
H 0.639351 0.533999 0.501484 0.000000
N 0.576915 0.558100 0.498252 0.000000
O 0.593354 0.555082 0.460626 0.000000
C 0.531227 0.588228 0.505072 0.000000
H 0.539524 0.592255 0.487621 0.000000
C 0.545490 0.578286 0.523803 0.000000
C 0.572268 0.573710 0.519800 0.000000
H 0.580664 0.591974 0.517713 0.000000
H 0.580650 0.565158 0.536110 0.000000
C 0.562720 0.535302 0.495327 0.000000
H 0.566151 0.526347 0.477519 0.000000
H 0.542914 0.539393 0.495450 0.000000
C 0.593665 0.564910 0.480581 0.000000
C 0.612562 0.583837 0.484816 0.000000
C 0.617632 0.601061 0.466545 0.000000
H 0.607169 0.600913 0.449790 0.000000
C 0.635954 0.618588 0.469971 0.000000
C 0.640805 0.636066 0.451923 0.000000
H 0.630521 0.636280 0.435078 0.000000
C 0.659034 0.653484 0.455575 0.000000
H 0.662676 0.666963 0.441642 0.000000
C 0.672567 0.653558 0.477135 0.000000
H 0.686661 0.667085 0.479855 0.000000
C 0.667946 0.636234 0.495237 0.000000
H 0.678646 0.636556 0.511836 0.000000
C 0.649641 0.618704 0.491838 0.000000
C 0.644791 0.601280 0.509863 0.000000
H 0.655163 0.601005 0.526654 0.000000
C 0.626434 0.584002 0.506362 0.000000
H 0.623116 0.570704 0.520504 0.000000
N 0.421631 0.444347 0.507456 0.000000
O 0.422785 0.417763 0.476039 0.000000
C 0.454513 0.435768 0.550893 0.000000
H 0.453495 0.419491 0.539774 0.000000
C 0.435829 0.453149 0.549513 0.000000
C 0.414274 0.448936 0.533018 0.000000
H 0.404403 0.433155 0.540894 0.000000
H 0.401583 0.464704 0.533551 0.000000
C 0.439533 0.460909 0.495834 0.000000
H 0.445293 0.454398 0.477572 0.000000
H 0.456513 0.461572 0.506800 0.000000
C 0.412626 0.424471 0.494664 0.000000
C 0.390671 0.410724 0.502498 0.000000
C 0.390571 0.385138 0.501266 0.000000
H 0.406809 0.375567 0.495354 0.000000
C 0.369689 0.371917 0.507885 0.000000
C 0.369650 0.346343 0.507050 0.000000
H 0.385701 0.336425 0.501260 0.000000
C 0.348778 0.333372 0.513768 0.000000
H 0.348843 0.313656 0.513156 0.000000
C 0.327840 0.345757 0.521267 0.000000
H 0.311740 0.335607 0.526423 0.000000
C 0.327629 0.371213 0.522129 0.000000
H 0.311207 0.380518 0.527986 0.000000
C 0.348481 0.384456 0.515533 0.000000
C 0.348520 0.409977 0.516391 0.000000
H 0.332422 0.419887 0.522071 0.000000
C 0.369424 0.422969 0.509896 0.000000
H 0.368948 0.442651 0.510642 0.000000
N 0.406958 0.487274 0.478185 0.000000
O 0.385082 0.505592 0.507865 0.000000
C 0.430842 0.518498 0.439503 0.000000
H 0.417381 0.528999 0.449409 0.000000
C 0.429175 0.492999 0.439178 0.000000
C 0.408515 0.480363 0.452119 0.000000
H 0.391791 0.485535 0.442016 0.000000
H 0.410317 0.460259 0.450691 0.000000
C 0.429420 0.486814 0.493187 0.000000
H 0.426461 0.494443 0.511684 0.000000
H 0.443591 0.498578 0.484831 0.000000
C 0.385100 0.494839 0.488391 0.000000
C 0.361105 0.490255 0.476707 0.000000
C 0.343352 0.508719 0.476444 0.000000
H 0.347565 0.526449 0.484068 0.000000
C 0.320326 0.504425 0.466146 0.000000
C 0.302681 0.522944 0.465500 0.000000
H 0.306541 0.540806 0.472958 0.000000
C 0.279848 0.518481 0.455120 0.000000
H 0.266318 0.532825 0.454604 0.000000
C 0.274428 0.495581 0.445413 0.000000
H 0.256716 0.492233 0.437408 0.000000
C 0.291821 0.476970 0.445973 0.000000
H 0.287298 0.459319 0.438379 0.000000
C 0.314839 0.481236 0.456261 0.000000
C 0.332451 0.462756 0.456882 0.000000
H 0.328536 0.444863 0.449526 0.000000
C 0.355357 0.467233 0.467031 0.000000
H 0.368586 0.452647 0.467370 0.000000
N 0.495323 0.457286 0.413697 0.000000
O 0.501109 0.417004 0.419939 0.000000
C 0.446340 0.479431 0.425972 0.000000
H 0.444960 0.459743 0.425325 0.000000
C 0.465307 0.491132 0.413509 0.000000
C 0.483368 0.476449 0.398911 0.000000
H 0.472838 0.468576 0.383578 0.000000
H 0.497554 0.488409 0.390841 0.000000
C 0.505521 0.463845 0.437838 0.000000
H 0.511970 0.447642 0.448118 0.000000
H 0.491149 0.472082 0.449439 0.000000
C 0.496381 0.433347 0.405598 0.000000
C 0.492162 0.426408 0.379784 0.000000
C 0.478114 0.405698 0.374311 0.000000
H 0.469787 0.395379 0.388954 0.000000
C 0.474592 0.398464 0.350023 0.000000
C 0.460251 0.378015 0.344466 0.000000
H 0.451715 0.367492 0.358817 0.000000
C 0.456801 0.371038 0.320208 0.000000
H 0.445683 0.355298 0.315998 0.000000
C 0.467650 0.384300 0.301382 0.000000
H 0.464924 0.378790 0.282646 0.000000
C 0.482003 0.404677 0.306667 0.000000
H 0.490296 0.414730 0.291825 0.000000
C 0.485540 0.411926 0.330933 0.000000
C 0.499835 0.432348 0.336469 0.000000
H 0.508462 0.442794 0.322114 0.000000
C 0.503128 0.439482 0.360681 0.000000
H 0.514307 0.455259 0.364463 0.000000
N 0.546886 0.471692 0.420659 0.000000
O 0.546203 0.503389 0.394392 0.000000
C 0.581907 0.473075 0.463241 0.000000
H 0.586836 0.486756 0.449895 0.000000
C 0.567935 0.452935 0.456037 0.000000
C 0.560275 0.450118 0.429819 0.000000
H 0.577349 0.446979 0.419469 0.000000
H 0.548774 0.433632 0.427379 0.000000
C 0.526748 0.481858 0.435524 0.000000
H 0.519615 0.499206 0.427958 0.000000
H 0.533450 0.486527 0.454025 0.000000
C 0.553432 0.482837 0.398916 0.000000
C 0.568962 0.470745 0.380343 0.000000
C 0.587410 0.484051 0.368547 0.000000
H 0.590697 0.502850 0.373684 0.000000
C 0.601740 0.473099 0.350421 0.000000
C 0.620436 0.486221 0.338889 0.000000
H 0.624068 0.504994 0.343780 0.000000
C 0.634647 0.475089 0.320912 0.000000
H 0.649081 0.485250 0.312109 0.000000
C 0.630289 0.450906 0.314267 0.000000
H 0.641342 0.442405 0.300324 0.000000
C 0.611706 0.437646 0.325582 0.000000
H 0.608574 0.418910 0.320171 0.000000
C 0.597365 0.448576 0.343714 0.000000
C 0.578724 0.435467 0.355234 0.000000
H 0.575025 0.416730 0.350250 0.000000
C 0.564650 0.446468 0.373363 0.000000
H 0.550324 0.435993 0.381901 0.000000
N 0.455033 0.522910 0.582145 0.000000
O 0.432507 0.556514 0.574500 0.000000
C 0.436905 0.473994 0.564247 0.000000
H 0.422373 0.487333 0.563561 0.000000
C 0.456705 0.477740 0.579966 0.000000
C 0.457480 0.499928 0.596124 0.000000
H 0.442351 0.497592 0.609317 0.000000
H 0.474643 0.500482 0.606838 0.000000
C 0.470281 0.526502 0.560135 0.000000
H 0.465289 0.543269 0.549984 0.000000
H 0.467306 0.511345 0.547081 0.000000
C 0.438247 0.540575 0.588926 0.000000
C 0.426774 0.541254 0.613425 0.000000
C 0.401774 0.546387 0.615626 0.000000
H 0.390864 0.549032 0.599372 0.000000
C 0.390817 0.547846 0.638702 0.000000
C 0.365773 0.552583 0.640960 0.000000
H 0.354532 0.555217 0.624952 0.000000
C 0.355048 0.553906 0.664030 0.000000
H 0.335737 0.557516 0.665707 0.000000
C 0.369174 0.550606 0.684948 0.000000
H 0.360763 0.551673 0.702751 0.000000
C 0.394138 0.545913 0.682957 0.000000
H 0.404812 0.543427 0.699388 0.000000
C 0.405113 0.544454 0.659907 0.000000
C 0.430102 0.539703 0.657661 0.000000
H 0.441354 0.537187 0.673682 0.000000
C 0.440821 0.538140 0.634631 0.000000
H 0.460146 0.534550 0.633397 0.000000
N 0.502759 0.548112 0.583500 0.000000
O 0.520182 0.523094 0.611170 0.000000
C 0.534848 0.573501 0.546540 0.000000
H 0.545832 0.566167 0.561219 0.000000
C 0.510037 0.578187 0.550488 0.000000
C 0.498882 0.573499 0.575130 0.000000
H 0.507462 0.586854 0.587636 0.000000
H 0.479035 0.577462 0.574951 0.000000
C 0.497450 0.527796 0.566504 0.000000
H 0.503132 0.509868 0.573948 0.000000
H 0.508095 0.530046 0.549456 0.000000
C 0.511940 0.543241 0.606561 0.000000
C 0.512103 0.561594 0.626448 0.000000
C 0.532690 0.563851 0.641498 0.000000
H 0.548653 0.552739 0.637990 0.000000
C 0.532852 0.580592 0.660854 0.000000
C 0.553541 0.583182 0.675686 0.000000
H 0.569685 0.572298 0.672452 0.000000
C 0.553504 0.599968 0.694850 0.000000
H 0.569512 0.601951 0.706204 0.000000
C 0.532888 0.614189 0.699403 0.000000
H 0.532972 0.627133 0.714279 0.000000
C 0.512159 0.611748 0.684803 0.000000
H 0.496319 0.622933 0.688616 0.000000
C 0.511982 0.595045 0.665447 0.000000
C 0.491340 0.592483 0.650636 0.000000
H 0.475160 0.603290 0.653954 0.000000
C 0.491413 0.575879 0.631342 0.000000
H 0.475224 0.574199 0.620239 0.000000
N 0.469001 0.589796 0.483555 0.000000
O 0.427846 0.588489 0.483749 0.000000
C 0.495942 0.588127 0.531638 0.000000
H 0.476852 0.592140 0.534644 0.000000
C 0.506389 0.592975 0.508824 0.000000
C 0.491247 0.604156 0.488809 0.000000
H 0.486779 0.622805 0.495150 0.000000
H 0.502067 0.606107 0.471812 0.000000
C 0.471163 0.563076 0.480208 0.000000
H 0.453121 0.554036 0.478591 0.000000
H 0.479824 0.554723 0.496463 0.000000
C 0.446288 0.600878 0.482505 0.000000
C 0.443139 0.627611 0.479710 0.000000
C 0.425339 0.639842 0.493470 0.000000
H 0.414570 0.629787 0.506644 0.000000
C 0.421624 0.664971 0.490505 0.000000
C 0.404132 0.677314 0.504520 0.000000
H 0.393226 0.667625 0.517828 0.000000
C 0.400655 0.702364 0.501446 0.000000
H 0.387194 0.711822 0.512328 0.000000
C 0.414484 0.715233 0.484383 0.000000
H 0.411687 0.734617 0.482079 0.000000
C 0.431936 0.703156 0.470285 0.000000
H 0.442482 0.713420 0.457127 0.000000
C 0.435668 0.678033 0.473251 0.000000
C 0.453142 0.665726 0.459278 0.000000
H 0.463965 0.675392 0.445897 0.000000
C 0.456817 0.640746 0.462474 0.000000
H 0.470341 0.631665 0.451405 0.000000
N 0.475319 0.566870 0.435085 0.000000
O 0.509742 0.587115 0.425056 0.000000
C 0.466817 0.516656 0.413946 0.000000
H 0.481205 0.525876 0.404068 0.000000
C 0.449760 0.530408 0.427101 0.000000
C 0.451181 0.557831 0.427068 0.000000
H 0.447020 0.563465 0.408095 0.000000
H 0.436826 0.565827 0.438899 0.000000
C 0.486268 0.556698 0.457591 0.000000
H 0.505224 0.563171 0.460521 0.000000
H 0.487726 0.536581 0.456121 0.000000
C 0.488001 0.584011 0.421478 0.000000
C 0.476229 0.599260 0.402472 0.000000
C 0.488224 0.603361 0.380229 0.000000
H 0.505642 0.594708 0.376771 0.000000
C 0.477682 0.618347 0.362362 0.000000
C 0.489429 0.622167 0.339953 0.000000
H 0.506814 0.613626 0.336112 0.000000
C 0.478710 0.637062 0.322283 0.000000
H 0.487797 0.639912 0.305009 0.000000
C 0.456319 0.648283 0.326835 0.000000
H 0.448114 0.659801 0.313086 0.000000
C 0.444447 0.644661 0.349086 0.000000
H 0.427103 0.653521 0.352312 0.000000
C 0.454966 0.629684 0.366944 0.000000
C 0.443226 0.625859 0.389296 0.000000
H 0.425902 0.634484 0.393177 0.000000
C 0.453780 0.610801 0.406892 0.000000
H 0.444401 0.608222 0.424016 0.000000
N 0.518775 0.430774 0.564420 0.000000
O 0.555803 0.439023 0.580419 0.000000
C 0.475287 0.460249 0.581204 0.000000
H 0.490463 0.462822 0.593559 0.000000
C 0.474389 0.439334 0.566545 0.000000
C 0.494179 0.420373 0.568355 0.000000
H 0.492337 0.412335 0.586808 0.000000
H 0.491086 0.405416 0.555062 0.000000
C 0.522878 0.446951 0.543176 0.000000
H 0.541282 0.455382 0.543375 0.000000
H 0.509946 0.462491 0.543684 0.000000
C 0.537615 0.426208 0.580668 0.000000
C 0.536900 0.405978 0.598628 0.000000
C 0.545083 0.409934 0.622578 0.000000
H 0.551120 0.427944 0.628001 0.000000
C 0.545217 0.390788 0.639557 0.000000
C 0.553028 0.394770 0.663604 0.000000
H 0.559053 0.412632 0.669414 0.000000
C 0.553015 0.375594 0.680375 0.000000
H 0.558984 0.378742 0.698894 0.000000
C 0.545335 0.352377 0.673304 0.000000
H 0.545390 0.337608 0.686370 0.000000
C 0.537565 0.348164 0.649407 0.000000
H 0.531695 0.330026 0.644244 0.000000
C 0.537407 0.367274 0.632417 0.000000
C 0.529606 0.363304 0.608428 0.000000
H 0.523678 0.345402 0.602599 0.000000
C 0.529379 0.382481 0.591697 0.000000
H 0.523369 0.378921 0.573284 0.000000
N 0.536906 0.412561 0.516940 0.000000
O 0.506613 0.385366 0.510761 0.000000
C 0.561954 0.434969 0.473212 0.000000
H 0.551481 0.419163 0.467730 0.000000
C 0.569463 0.437284 0.497531 0.000000
C 0.563404 0.417663 0.515762 0.000000
H 0.573885 0.401395 0.509932 0.000000
H 0.570022 0.422651 0.534228 0.000000
C 0.519691 0.433276 0.519026 0.000000
H 0.500394 0.427412 0.517499 0.000000
H 0.522505 0.446206 0.503732 0.000000
C 0.528097 0.388903 0.515349 0.000000
C 0.543733 0.367153 0.519191 0.000000
C 0.541345 0.346886 0.503732 0.000000
H 0.528664 0.347569 0.488601 0.000000
C 0.555461 0.325888 0.507575 0.000000
C 0.553412 0.305749 0.491924 0.000000
H 0.540902 0.306080 0.476661 0.000000
C 0.567621 0.284981 0.495897 0.000000
H 0.566026 0.269525 0.483770 0.000000
C 0.583863 0.284107 0.515479 0.000000
H 0.594793 0.267969 0.518464 0.000000
C 0.586036 0.304014 0.531221 0.000000
H 0.598731 0.303004 0.546333 0.000000
C 0.571960 0.325010 0.527388 0.000000
C 0.574027 0.345112 0.542998 0.000000
H 0.586456 0.344723 0.558327 0.000000
C 0.560024 0.365973 0.538937 0.000000
H 0.561890 0.381193 0.551295 0.000000
