data_RCC1a_PM
_symmetry_space_group_name_H-M   'P 1'
_cell_length_a 51.723557
_cell_length_b 51.723557
_cell_length_c 51.723557
_cell_angle_alpha 90.000000
_cell_angle_beta 90.000000
_cell_angle_gamma 90.000000
_symmetry_Int_Tables_number 1

loop_
_symmetry_equiv_pos_as_xyz
 'x, y, z'

loop_
_atom_site_label
_atom_site_fract_x
_atom_site_fract_y
_atom_site_fract_z
_atom_site_charge
O 0.433811 0.504401 0.399677 0.000000
N 0.434659 0.471695 0.428597 0.000000
C 0.456884 0.417906 0.466740 0.000000
H 0.439106 0.415678 0.477581 0.000000
C 0.456975 0.431885 0.443495 0.000000
C 0.432321 0.443532 0.433205 0.000000
H 0.416018 0.439969 0.446713 0.000000
H 0.428013 0.432884 0.415088 0.000000
C 0.446620 0.488136 0.448800 0.000000
H 0.448901 0.508505 0.442435 0.000000
H 0.466516 0.481322 0.453013 0.000000
C 0.426590 0.482697 0.405471 0.000000
C 0.409034 0.469289 0.387064 0.000000
C 0.370064 0.444427 0.378166 0.000000
H 0.353286 0.434061 0.385169 0.000000
Br 0.351346 0.430966 0.327567 0.000000
C 0.374655 0.446526 0.351615 0.000000
C 0.396264 0.460107 0.342717 0.000000
H 0.399779 0.461932 0.322178 0.000000
C 0.413330 0.471498 0.360321 0.000000
H 0.429957 0.481969 0.353049 0.000000
C 0.387053 0.455848 0.395775 0.000000
H 0.382887 0.454283 0.416198 0.000000
O 0.572463 0.567737 0.568025 0.000000
N 0.565043 0.524987 0.572906 0.000000
C 0.532904 0.464642 0.585844 0.000000
H 0.549439 0.452568 0.581405 0.000000
C 0.536324 0.491032 0.591015 0.000000
C 0.563009 0.502746 0.590846 0.000000
H 0.577714 0.488058 0.585527 0.000000
H 0.566898 0.508574 0.611121 0.000000
C 0.554305 0.522488 0.546443 0.000000
H 0.555395 0.540888 0.535449 0.000000
H 0.533405 0.517762 0.547396 0.000000
C 0.576094 0.548156 0.580714 0.000000
C 0.592672 0.550496 0.604065 0.000000
C 0.628162 0.535167 0.630969 0.000000
H 0.642803 0.520769 0.635065 0.000000
Br 0.647970 0.561153 0.675960 0.000000
C 0.625654 0.556878 0.646842 0.000000
C 0.606860 0.575491 0.641338 0.000000
H 0.604950 0.592440 0.653478 0.000000
C 0.590485 0.572372 0.620037 0.000000
H 0.576043 0.587020 0.616062 0.000000
C 0.611894 0.532031 0.609650 0.000000
H 0.614466 0.515267 0.597434 0.000000
O 0.387074 0.460575 0.487355 0.000000
N 0.403900 0.496762 0.469595 0.000000
C 0.431503 0.560262 0.462869 0.000000
H 0.433440 0.559411 0.442027 0.000000
C 0.414926 0.543078 0.475706 0.000000
C 0.399375 0.523574 0.460638 0.000000
H 0.403858 0.524836 0.439695 0.000000
H 0.378870 0.529372 0.463104 0.000000
C 0.430831 0.487913 0.473902 0.000000
H 0.431680 0.468155 0.482240 0.000000
H 0.440491 0.500502 0.488331 0.000000
C 0.383422 0.480171 0.474694 0.000000
C 0.356723 0.484912 0.465196 0.000000
C 0.326820 0.496331 0.430645 0.000000
H 0.323560 0.502781 0.411003 0.000000
Br 0.271356 0.495295 0.434454 0.000000
C 0.305881 0.491027 0.446863 0.000000
C 0.310231 0.482520 0.472134 0.000000
H 0.294070 0.478216 0.484727 0.000000
C 0.335504 0.479414 0.481257 0.000000
H 0.338496 0.472777 0.500902 0.000000
C 0.352081 0.493175 0.439654 0.000000
H 0.367949 0.497037 0.426634 0.000000
O 0.606654 0.467286 0.544942 0.000000
N 0.596381 0.506587 0.528922 0.000000
C 0.578710 0.557188 0.484546 0.000000
H 0.578017 0.572341 0.498985 0.000000
C 0.591777 0.534003 0.489783 0.000000
C 0.605297 0.530146 0.515310 0.000000
H 0.602402 0.547143 0.528078 0.000000
H 0.626211 0.529175 0.510701 0.000000
C 0.568247 0.501462 0.530854 0.000000
H 0.564026 0.482450 0.539873 0.000000
H 0.559589 0.500412 0.511259 0.000000
C 0.613896 0.488975 0.539119 0.000000
C 0.641574 0.495301 0.543673 0.000000
C 0.674956 0.524073 0.560219 0.000000
H 0.680369 0.542391 0.568772 0.000000
Br 0.729330 0.512585 0.562017 0.000000
C 0.693834 0.505552 0.554650 0.000000
C 0.686659 0.481873 0.543794 0.000000
H 0.701203 0.467411 0.539615 0.000000
C 0.660683 0.476715 0.538383 0.000000
H 0.655506 0.458233 0.529984 0.000000
C 0.648984 0.518936 0.554904 0.000000
H 0.634701 0.533429 0.559725 0.000000
O 0.438926 0.411434 0.553783 0.000000
N 0.469591 0.406660 0.523065 0.000000
C 0.502653 0.409204 0.461888 0.000000
H 0.520342 0.400330 0.468806 0.000000
C 0.479727 0.406713 0.476123 0.000000
C 0.479340 0.391358 0.500890 0.000000
H 0.498949 0.383964 0.505554 0.000000
H 0.466895 0.374336 0.496950 0.000000
C 0.479633 0.433196 0.527094 0.000000
H 0.469664 0.443325 0.543178 0.000000
H 0.475893 0.445209 0.509723 0.000000
C 0.450772 0.396843 0.539487 0.000000
C 0.444258 0.368899 0.540879 0.000000
C 0.457302 0.323744 0.543886 0.000000
H 0.472471 0.309327 0.544104 0.000000
Br 0.422751 0.280598 0.549921 0.000000
C 0.431449 0.316314 0.546332 0.000000
C 0.411981 0.335064 0.546225 0.000000
H 0.391925 0.329406 0.548296 0.000000
C 0.418319 0.361207 0.543578 0.000000
H 0.402977 0.375460 0.543576 0.000000
C 0.463716 0.349850 0.541314 0.000000
H 0.483865 0.355148 0.539831 0.000000
O 0.517827 0.618825 0.505406 0.000000
N 0.532392 0.591953 0.474222 0.000000
C 0.567733 0.541546 0.441780 0.000000
H 0.558626 0.544415 0.423116 0.000000
C 0.566473 0.560961 0.460646 0.000000
C 0.552860 0.586112 0.455042 0.000000
H 0.544210 0.585852 0.435410 0.000000
H 0.568194 0.601113 0.455027 0.000000
C 0.514000 0.571259 0.481621 0.000000
H 0.500749 0.577392 0.497350 0.000000
H 0.524656 0.554407 0.489525 0.000000
C 0.530736 0.616096 0.485822 0.000000
C 0.543888 0.639409 0.475378 0.000000
C 0.554929 0.667698 0.439375 0.000000
H 0.554605 0.671728 0.418841 0.000000
Br 0.581974 0.716096 0.443614 0.000000
C 0.566507 0.685116 0.456466 0.000000
C 0.566680 0.679866 0.482980 0.000000
H 0.575477 0.693403 0.496319 0.000000
C 0.555388 0.657190 0.492409 0.000000
H 0.555675 0.653471 0.513015 0.000000
C 0.543560 0.645059 0.448729 0.000000
H 0.534397 0.632074 0.435176 0.000000
O 0.544082 0.393265 0.533671 0.000000
N 0.515112 0.417340 0.555761 0.000000
C 0.486751 0.469101 0.592584 0.000000
H 0.467576 0.460704 0.593409 0.000000
C 0.508129 0.453618 0.586407 0.000000
C 0.504707 0.425155 0.581258 0.000000
H 0.483992 0.419659 0.582377 0.000000
H 0.514798 0.415106 0.597318 0.000000
C 0.508750 0.433186 0.532727 0.000000
H 0.519032 0.426473 0.515126 0.000000
H 0.515292 0.453399 0.535670 0.000000
C 0.531217 0.396011 0.553254 0.000000
C 0.533542 0.375715 0.573489 0.000000
C 0.513962 0.345765 0.604077 0.000000
H 0.496894 0.338336 0.613641 0.000000
Br 0.541481 0.308031 0.634253 0.000000
C 0.538265 0.335359 0.609616 0.000000
C 0.560193 0.344912 0.597052 0.000000
H 0.579041 0.336804 0.601162 0.000000
C 0.557871 0.364944 0.579027 0.000000
H 0.575089 0.372084 0.569461 0.000000
C 0.511553 0.365711 0.586031 0.000000
H 0.492515 0.373184 0.581797 0.000000
O 0.499144 0.576471 0.407175 0.000000
N 0.482886 0.584061 0.446980 0.000000
C 0.442865 0.580147 0.503747 0.000000
H 0.453458 0.594548 0.514667 0.000000
C 0.445672 0.578707 0.476822 0.000000
C 0.463097 0.597391 0.462801 0.000000
H 0.472866 0.610527 0.476668 0.000000
H 0.450116 0.609444 0.450703 0.000000
C 0.497619 0.562357 0.458557 0.000000
H 0.510574 0.552812 0.444356 0.000000
H 0.484161 0.546984 0.465080 0.000000
C 0.487276 0.591049 0.421436 0.000000
C 0.478309 0.615993 0.410292 0.000000
C 0.473809 0.662791 0.412661 0.000000
H 0.476032 0.680608 0.423413 0.000000
Br 0.453797 0.695273 0.372211 0.000000
C 0.463781 0.663209 0.387583 0.000000
C 0.461147 0.640156 0.373742 0.000000
H 0.453538 0.640400 0.354250 0.000000
C 0.468425 0.616657 0.384985 0.000000
H 0.466262 0.598983 0.373945 0.000000
C 0.481173 0.639378 0.423924 0.000000
H 0.489226 0.639592 0.443195 0.000000
O 0.588664 0.431758 0.455875 0.000000
N 0.548962 0.436882 0.438443 0.000000
C 0.480023 0.434272 0.429428 0.000000
H 0.479983 0.444769 0.411288 0.000000
C 0.502972 0.423135 0.438627 0.000000
C 0.527618 0.425332 0.423261 0.000000
H 0.524507 0.437014 0.405509 0.000000
H 0.532322 0.405377 0.416954 0.000000
C 0.543837 0.460533 0.453822 0.000000
H 0.560734 0.466341 0.465711 0.000000
H 0.528073 0.456880 0.467899 0.000000
C 0.573290 0.425556 0.439084 0.000000
C 0.581929 0.406005 0.419876 0.000000
C 0.586419 0.391316 0.375361 0.000000
H 0.582433 0.393996 0.354991 0.000000
Br 0.613815 0.345733 0.359127 0.000000
C 0.600986 0.370150 0.383692 0.000000
C 0.606224 0.366917 0.409999 0.000000
H 0.617634 0.350638 0.416530 0.000000
C 0.596818 0.384767 0.428013 0.000000
H 0.601096 0.381952 0.448328 0.000000
C 0.577079 0.409228 0.393288 0.000000
H 0.566183 0.425637 0.386341 0.000000
O 0.477485 0.581169 0.585846 0.000000
N 0.447972 0.562500 0.559631 0.000000
C 0.412260 0.544684 0.502650 0.000000
H 0.399177 0.531614 0.512492 0.000000
C 0.426332 0.563047 0.516781 0.000000
C 0.423101 0.565044 0.545675 0.000000
H 0.409477 0.550101 0.552842 0.000000
H 0.413988 0.584147 0.549172 0.000000
C 0.465909 0.541371 0.552324 0.000000
H 0.484570 0.542512 0.562863 0.000000
H 0.471090 0.542955 0.531571 0.000000
C 0.455009 0.579974 0.578764 0.000000
C 0.436196 0.597546 0.591576 0.000000
C 0.394867 0.605026 0.612834 0.000000
H 0.376138 0.597906 0.618876 0.000000
Br 0.378959 0.652853 0.636313 0.000000
C 0.402145 0.630461 0.618282 0.000000
C 0.426442 0.639457 0.610582 0.000000
H 0.432219 0.659105 0.614913 0.000000
C 0.443421 0.623096 0.597366 0.000000
H 0.462179 0.630397 0.591590 0.000000
C 0.411806 0.588599 0.599700 0.000000
H 0.405891 0.568904 0.596044 0.000000
O 0.528370 0.486339 0.383917 0.000000
N 0.556506 0.489307 0.417179 0.000000
C 0.592904 0.514700 0.470762 0.000000
H 0.603308 0.496952 0.474718 0.000000
C 0.580741 0.518291 0.446802 0.000000
C 0.582358 0.497717 0.426224 0.000000
H 0.593196 0.480629 0.433399 0.000000
H 0.593879 0.506320 0.410324 0.000000
C 0.536249 0.483431 0.436571 0.000000
H 0.517306 0.479053 0.427481 0.000000
H 0.532699 0.500598 0.448929 0.000000
C 0.550866 0.487572 0.390993 0.000000
C 0.571120 0.486892 0.370626 0.000000
C 0.611665 0.470085 0.353537 0.000000
H 0.628746 0.458242 0.355985 0.000000
Br 0.632746 0.481748 0.303423 0.000000
C 0.607789 0.483771 0.330574 0.000000
C 0.585597 0.498866 0.327470 0.000000
H 0.582431 0.509376 0.309655 0.000000
C 0.567318 0.500388 0.347348 0.000000
H 0.550219 0.512173 0.344579 0.000000
C 0.593405 0.471503 0.373378 0.000000
H 0.596645 0.460432 0.390809 0.000000
O 0.405467 0.500729 0.574350 0.000000
N 0.446535 0.511313 0.584750 0.000000
C 0.514804 0.506349 0.597173 0.000000
H 0.517534 0.526664 0.601500 0.000000
C 0.489957 0.495526 0.597789 0.000000
C 0.466915 0.511911 0.604853 0.000000
H 0.472822 0.532255 0.608249 0.000000
H 0.459813 0.504155 0.623549 0.000000
C 0.454007 0.514664 0.557282 0.000000
H 0.437392 0.512092 0.543944 0.000000
H 0.468141 0.499565 0.551600 0.000000
C 0.420837 0.506896 0.591157 0.000000
C 0.410720 0.509567 0.617940 0.000000
C 0.407051 0.533572 0.658267 0.000000
H 0.412686 0.549854 0.670146 0.000000
Br 0.374483 0.519664 0.701135 0.000000
C 0.389083 0.515617 0.667451 0.000000
C 0.381749 0.494751 0.651933 0.000000
H 0.367717 0.480880 0.658900 0.000000
C 0.392446 0.491748 0.627272 0.000000
H 0.386508 0.475477 0.615502 0.000000
C 0.417714 0.530686 0.633624 0.000000
H 0.431283 0.545025 0.626805 0.000000
