data_RCC1c_PM
_symmetry_space_group_name_H-M   'P 1'
_cell_length_a 51.583567
_cell_length_b 51.583567
_cell_length_c 51.583567
_cell_angle_alpha 90.000000
_cell_angle_beta 90.000000
_cell_angle_gamma 90.000000
_symmetry_Int_Tables_number 1

loop_
_symmetry_equiv_pos_as_xyz
 'x, y, z'

loop_
_atom_site_label
_atom_site_fract_x
_atom_site_fract_y
_atom_site_fract_z
_atom_site_charge
O 0.581952 0.457433 0.588115 0.000000
O 0.584081 0.404312 0.519515 0.000000
O 0.397107 0.489098 0.554536 0.000000
O 0.475483 0.510143 0.623292 0.000000
O 0.390090 0.547339 0.463592 0.000000
O 0.450645 0.590535 0.428264 0.000000
O 0.560561 0.546349 0.390305 0.000000
O 0.574224 0.464627 0.400431 0.000000
O 0.543660 0.609884 0.496107 0.000000
O 0.560301 0.564574 0.591001 0.000000
O 0.405926 0.420146 0.477698 0.000000
O 0.492986 0.381595 0.456106 0.000000
N 0.586669 0.463052 0.545176 0.000000
N 0.550965 0.416140 0.545223 0.000000
N 0.433676 0.474312 0.573119 0.000000
N 0.452265 0.526450 0.590178 0.000000
N 0.425048 0.566973 0.480506 0.000000
N 0.442880 0.547731 0.428004 0.000000
N 0.531055 0.514585 0.394705 0.000000
N 0.577924 0.498843 0.427155 0.000000
N 0.562931 0.577753 0.518416 0.000000
N 0.529031 0.581050 0.565419 0.000000
N 0.440537 0.429102 0.452799 0.000000
N 0.471166 0.396789 0.490683 0.000000
C 0.589802 0.538885 0.511166 0.000000
C 0.594227 0.514958 0.523269 0.000000
H 0.595115 0.513886 0.544222 0.000000
C 0.597438 0.492355 0.508400 0.000000
C 0.597187 0.494109 0.481263 0.000000
H 0.600462 0.476938 0.469625 0.000000
C 0.592516 0.517913 0.469004 0.000000
C 0.589050 0.540214 0.484053 0.000000
H 0.585940 0.558714 0.474654 0.000000
C 0.586138 0.563156 0.526985 0.000000
H 0.584384 0.558427 0.547840 0.000000
H 0.604264 0.573916 0.525687 0.000000
C 0.601998 0.466384 0.521090 0.000000
H 0.622874 0.464485 0.523577 0.000000
H 0.596974 0.450651 0.507344 0.000000
C 0.592565 0.520071 0.439890 0.000000
H 0.612941 0.520943 0.434562 0.000000
H 0.584317 0.538959 0.433791 0.000000
C 0.447061 0.563660 0.560482 0.000000
C 0.470426 0.575569 0.567771 0.000000
H 0.478678 0.571741 0.586661 0.000000
C 0.484270 0.590809 0.550090 0.000000
C 0.473809 0.595404 0.525399 0.000000
H 0.484272 0.607540 0.511810 0.000000
C 0.450114 0.584237 0.518039 0.000000
C 0.436761 0.568456 0.535780 0.000000
H 0.418594 0.559536 0.530254 0.000000
C 0.433649 0.545023 0.578581 0.000000
H 0.422970 0.556667 0.592567 0.000000
H 0.418275 0.534093 0.568266 0.000000
C 0.510507 0.601609 0.557405 0.000000
H 0.519030 0.612532 0.540964 0.000000
H 0.506657 0.616029 0.572380 0.000000
C 0.439454 0.589413 0.491212 0.000000
H 0.428262 0.607339 0.492124 0.000000
H 0.455687 0.594197 0.477980 0.000000
C 0.468084 0.407226 0.537536 0.000000
C 0.494275 0.403128 0.543534 0.000000
H 0.505599 0.389944 0.531778 0.000000
C 0.506228 0.417301 0.563400 0.000000
C 0.491379 0.434729 0.578178 0.000000
H 0.500425 0.445552 0.593749 0.000000
C 0.464835 0.437958 0.573172 0.000000
C 0.453395 0.424288 0.552668 0.000000
H 0.433114 0.427252 0.548197 0.000000
C 0.455860 0.393566 0.514827 0.000000
H 0.435896 0.400776 0.511485 0.000000
H 0.453570 0.373541 0.521081 0.000000
C 0.534782 0.413794 0.568885 0.000000
H 0.536453 0.395131 0.578602 0.000000
H 0.541447 0.428260 0.583319 0.000000
C 0.448579 0.456018 0.589498 0.000000
H 0.460908 0.467002 0.603192 0.000000
H 0.436685 0.443909 0.602067 0.000000
C 0.491213 0.487127 0.398323 0.000000
C 0.485568 0.462286 0.407843 0.000000
H 0.499479 0.446752 0.405313 0.000000
C 0.461644 0.457160 0.419786 0.000000
C 0.443691 0.477367 0.422762 0.000000
H 0.425373 0.473743 0.432358 0.000000
C 0.449268 0.502325 0.413701 0.000000
C 0.472791 0.506904 0.400844 0.000000
H 0.477321 0.526102 0.393758 0.000000
C 0.516231 0.492286 0.384118 0.000000
H 0.510143 0.495079 0.364069 0.000000
H 0.528757 0.474813 0.384289 0.000000
C 0.454907 0.429853 0.427926 0.000000
H 0.472759 0.418068 0.429641 0.000000
H 0.444641 0.420998 0.411727 0.000000
C 0.430164 0.523998 0.418053 0.000000
H 0.419809 0.526630 0.399863 0.000000
H 0.415035 0.517819 0.432035 0.000000
C 0.558056 0.464273 0.542056 0.000000
H 0.547772 0.467859 0.560608 0.000000
H 0.552693 0.481155 0.529852 0.000000
C 0.547000 0.439816 0.529255 0.000000
H 0.526045 0.443057 0.525850 0.000000
H 0.554922 0.437720 0.509371 0.000000
C 0.449440 0.491417 0.556127 0.000000
H 0.461949 0.479379 0.543380 0.000000
H 0.437623 0.503020 0.542409 0.000000
C 0.466869 0.510024 0.571485 0.000000
H 0.476930 0.522521 0.557258 0.000000
H 0.482715 0.498718 0.580638 0.000000
C 0.440527 0.543045 0.476454 0.000000
H 0.453136 0.539385 0.493522 0.000000
H 0.428234 0.525429 0.475268 0.000000
C 0.457931 0.544764 0.452406 0.000000
H 0.469898 0.526905 0.451684 0.000000
H 0.472476 0.560420 0.454953 0.000000
C 0.533017 0.516816 0.423377 0.000000
H 0.539824 0.536253 0.429621 0.000000
H 0.513593 0.515348 0.432399 0.000000
C 0.550426 0.495806 0.435176 0.000000
H 0.542485 0.476404 0.430332 0.000000
H 0.548714 0.496926 0.456602 0.000000
C 0.537886 0.563711 0.520438 0.000000
H 0.521580 0.574178 0.511200 0.000000
H 0.539070 0.545158 0.509557 0.000000
C 0.530431 0.557593 0.548596 0.000000
H 0.511382 0.547825 0.548346 0.000000
H 0.543732 0.542484 0.556084 0.000000
C 0.454436 0.440009 0.475565 0.000000
H 0.461161 0.459980 0.471098 0.000000
H 0.441749 0.442542 0.492739 0.000000
C 0.478123 0.423839 0.483448 0.000000
H 0.487662 0.433691 0.499993 0.000000
H 0.492950 0.424883 0.467921 0.000000
C 0.597055 0.459604 0.569984 0.000000
C 0.626254 0.458167 0.576867 0.000000
C 0.640724 0.483936 0.570101 0.000000
H 0.639595 0.489605 0.549573 0.000000
H 0.631770 0.500301 0.580959 0.000000
C 0.669667 0.481869 0.577336 0.000000
H 0.679822 0.499995 0.571561 0.000000
C 0.681983 0.458592 0.563032 0.000000
H 0.680069 0.461177 0.541724 0.000000
H 0.703049 0.457579 0.567525 0.000000
C 0.668577 0.433160 0.571470 0.000000
H 0.677950 0.416491 0.561532 0.000000
C 0.639605 0.434134 0.564139 0.000000
H 0.630025 0.416169 0.571083 0.000000
H 0.638064 0.433273 0.542867 0.000000
C 0.629444 0.454494 0.606971 0.000000
H 0.620254 0.470910 0.617562 0.000000
H 0.619499 0.436465 0.613441 0.000000
C 0.672215 0.478113 0.606861 0.000000
H 0.693037 0.477147 0.612395 0.000000
H 0.663567 0.494927 0.617227 0.000000
C 0.671155 0.429729 0.601051 0.000000
H 0.661716 0.411346 0.607198 0.000000
H 0.691957 0.428421 0.606584 0.000000
C 0.658317 0.452909 0.614827 0.000000
H 0.659837 0.450330 0.636173 0.000000
C 0.569749 0.398192 0.537351 0.000000
C 0.573959 0.370731 0.548811 0.000000
C 0.595341 0.356136 0.532635 0.000000
H 0.589517 0.354832 0.511903 0.000000
H 0.613983 0.367014 0.533250 0.000000
C 0.600033 0.328436 0.543087 0.000000
H 0.615218 0.318731 0.531272 0.000000
C 0.574672 0.312751 0.541483 0.000000
H 0.568359 0.310982 0.520931 0.000000
H 0.577818 0.292788 0.548974 0.000000
C 0.553572 0.326498 0.557534 0.000000
H 0.535260 0.315152 0.556426 0.000000
C 0.548958 0.353883 0.546486 0.000000
H 0.531978 0.362014 0.556483 0.000000
H 0.543441 0.352422 0.525758 0.000000
C 0.584265 0.371555 0.577279 0.000000
H 0.603148 0.381851 0.577776 0.000000
H 0.571837 0.382177 0.590983 0.000000
C 0.609000 0.329888 0.571542 0.000000
H 0.612368 0.310046 0.579274 0.000000
H 0.627702 0.340563 0.572850 0.000000
C 0.562303 0.328636 0.586097 0.000000
H 0.547140 0.338641 0.597715 0.000000
H 0.564845 0.308926 0.594457 0.000000
C 0.588099 0.343784 0.587772 0.000000
H 0.594538 0.344729 0.608313 0.000000
C 0.406618 0.475096 0.571145 0.000000
C 0.387160 0.459953 0.588338 0.000000
C 0.388598 0.430036 0.583645 0.000000
H 0.384340 0.425759 0.562911 0.000000
H 0.407694 0.421325 0.587378 0.000000
C 0.368841 0.415761 0.600972 0.000000
H 0.370740 0.394492 0.598025 0.000000
C 0.341182 0.424292 0.593540 0.000000
H 0.337236 0.419414 0.572910 0.000000
H 0.326732 0.413690 0.605553 0.000000
C 0.338481 0.453735 0.597837 0.000000
H 0.318630 0.460003 0.592218 0.000000
C 0.358696 0.468154 0.581070 0.000000
H 0.354717 0.463942 0.560263 0.000000
H 0.356074 0.489409 0.583807 0.000000
C 0.390545 0.466888 0.617583 0.000000
H 0.410109 0.463185 0.625329 0.000000
H 0.387202 0.488018 0.620193 0.000000
C 0.374112 0.422339 0.629740 0.000000
H 0.360395 0.411456 0.642341 0.000000
H 0.394065 0.416243 0.635177 0.000000
C 0.343090 0.460035 0.626679 0.000000
H 0.340421 0.481149 0.630148 0.000000
H 0.328704 0.449617 0.638918 0.000000
C 0.370799 0.451786 0.634260 0.000000
H 0.374105 0.456277 0.655113 0.000000
C 0.458355 0.525070 0.616599 0.000000
C 0.445437 0.541016 0.638568 0.000000
C 0.415851 0.535106 0.640771 0.000000
H 0.404713 0.538430 0.622855 0.000000
H 0.413241 0.514216 0.645273 0.000000
C 0.403548 0.551332 0.662702 0.000000
H 0.382321 0.547632 0.663292 0.000000
C 0.408463 0.580475 0.657820 0.000000
H 0.399852 0.586326 0.638934 0.000000
H 0.398898 0.592192 0.673183 0.000000
C 0.437906 0.586000 0.657766 0.000000
H 0.441279 0.607083 0.654804 0.000000
C 0.450809 0.570700 0.635610 0.000000
H 0.444145 0.579264 0.617283 0.000000
H 0.472003 0.574091 0.636107 0.000000
C 0.457458 0.533053 0.665436 0.000000
H 0.454521 0.511964 0.669032 0.000000
H 0.478764 0.536545 0.665502 0.000000
C 0.415700 0.543300 0.688787 0.000000
H 0.406631 0.554452 0.704867 0.000000
H 0.411985 0.522416 0.692559 0.000000
C 0.449896 0.577692 0.683812 0.000000
H 0.471089 0.581787 0.683851 0.000000
H 0.441139 0.589025 0.699918 0.000000
C 0.445115 0.548505 0.687988 0.000000
H 0.453990 0.542372 0.706648 0.000000
C 0.398678 0.566696 0.474269 0.000000
C 0.378855 0.588624 0.479735 0.000000
C 0.378009 0.596310 0.509013 0.000000
H 0.372927 0.579041 0.520907 0.000000
H 0.396612 0.603367 0.516702 0.000000
C 0.357800 0.617891 0.513618 0.000000
H 0.358057 0.623647 0.534398 0.000000
C 0.330605 0.607705 0.506588 0.000000
H 0.325650 0.590715 0.518910 0.000000
H 0.315824 0.622928 0.510346 0.000000
C 0.330185 0.599905 0.477765 0.000000
H 0.310679 0.592258 0.472709 0.000000
C 0.350817 0.578777 0.472843 0.000000
H 0.349780 0.572893 0.452081 0.000000
H 0.345936 0.561344 0.484591 0.000000
C 0.383799 0.612780 0.462163 0.000000
H 0.403226 0.621347 0.464395 0.000000
H 0.382471 0.607044 0.441493 0.000000
C 0.364407 0.641660 0.496609 0.000000
H 0.350340 0.657534 0.500462 0.000000
H 0.384010 0.649086 0.501621 0.000000
C 0.336213 0.623775 0.460867 0.000000
H 0.335299 0.618454 0.439987 0.000000
H 0.321454 0.639142 0.464222 0.000000
C 0.363456 0.634053 0.467659 0.000000
H 0.367727 0.651367 0.455554 0.000000
C 0.441718 0.572138 0.416291 0.000000
C 0.430444 0.578222 0.389079 0.000000
C 0.400366 0.574850 0.388112 0.000000
H 0.393380 0.555386 0.393375 0.000000
H 0.391184 0.588073 0.402397 0.000000
C 0.390020 0.581361 0.360795 0.000000
H 0.368731 0.578036 0.360224 0.000000
C 0.403379 0.563931 0.340414 0.000000
H 0.399402 0.543188 0.344730 0.000000
H 0.395342 0.568094 0.320854 0.000000
C 0.432912 0.568924 0.340522 0.000000
H 0.442326 0.556660 0.325486 0.000000
C 0.444034 0.562026 0.367382 0.000000
H 0.441950 0.540936 0.369688 0.000000
H 0.465199 0.566001 0.367634 0.000000
C 0.435826 0.607479 0.382335 0.000000
H 0.426655 0.620383 0.397012 0.000000
H 0.457020 0.611491 0.382773 0.000000
C 0.395662 0.610051 0.354661 0.000000
H 0.387792 0.615135 0.335245 0.000000
H 0.385889 0.622756 0.369091 0.000000
C 0.438357 0.597680 0.334585 0.000000
H 0.459629 0.601289 0.334494 0.000000
H 0.430900 0.602720 0.314999 0.000000
C 0.425168 0.614669 0.355294 0.000000
H 0.429281 0.635421 0.351218 0.000000
C 0.545156 0.532020 0.379442 0.000000
C 0.542511 0.535422 0.349753 0.000000
C 0.514380 0.543878 0.342387 0.000000
H 0.499167 0.530256 0.348650 0.000000
H 0.509693 0.562490 0.352243 0.000000
C 0.511943 0.547539 0.312821 0.000000
H 0.491596 0.552664 0.307891 0.000000
C 0.519529 0.522154 0.298878 0.000000
H 0.506591 0.506129 0.305229 0.000000
H 0.516919 0.524450 0.277599 0.000000
C 0.548065 0.515269 0.304936 0.000000
H 0.553499 0.497314 0.294335 0.000000
C 0.551351 0.510832 0.334328 0.000000
H 0.572043 0.506671 0.338591 0.000000
H 0.541075 0.492840 0.339280 0.000000
C 0.560721 0.558024 0.340368 0.000000
H 0.555818 0.576393 0.350601 0.000000
H 0.581298 0.553536 0.345049 0.000000
C 0.530049 0.569671 0.304108 0.000000
H 0.528075 0.572875 0.282886 0.000000
H 0.524528 0.588052 0.313938 0.000000
C 0.565908 0.537616 0.296263 0.000000
H 0.586490 0.532651 0.300397 0.000000
H 0.564142 0.540624 0.274981 0.000000
C 0.558264 0.562529 0.310843 0.000000
H 0.571329 0.578599 0.304889 0.000000
C 0.588069 0.482145 0.408370 0.000000
C 0.615567 0.483731 0.396479 0.000000
C 0.618375 0.462969 0.374345 0.000000
H 0.614775 0.443143 0.382058 0.000000
H 0.603694 0.466458 0.358908 0.000000
C 0.645746 0.463655 0.362084 0.000000
H 0.647061 0.448770 0.346551 0.000000
C 0.666195 0.457981 0.383099 0.000000
H 0.663211 0.438216 0.391176 0.000000
H 0.685959 0.458460 0.374501 0.000000
C 0.664002 0.478389 0.404817 0.000000
H 0.678840 0.474339 0.419890 0.000000
C 0.636752 0.476863 0.417010 0.000000
H 0.633384 0.456849 0.424352 0.000000
H 0.636588 0.489183 0.434446 0.000000
C 0.620814 0.510551 0.383257 0.000000
H 0.606590 0.513612 0.367394 0.000000
H 0.618502 0.527537 0.395914 0.000000
C 0.650824 0.490684 0.350406 0.000000
H 0.670497 0.491347 0.341607 0.000000
H 0.636626 0.494710 0.334662 0.000000
C 0.668457 0.505764 0.393513 0.000000
H 0.666740 0.520560 0.409110 0.000000
H 0.688442 0.507160 0.385515 0.000000
C 0.648473 0.511297 0.371879 0.000000
H 0.652248 0.530811 0.363452 0.000000
C 0.563419 0.602197 0.506688 0.000000
C 0.586896 0.620822 0.506061 0.000000
C 0.608673 0.610787 0.487538 0.000000
H 0.616241 0.591450 0.492311 0.000000
H 0.600802 0.608939 0.467528 0.000000
C 0.631766 0.629777 0.487361 0.000000
H 0.647437 0.621885 0.474834 0.000000
C 0.642134 0.633291 0.515246 0.000000
H 0.648492 0.614263 0.523168 0.000000
H 0.659345 0.646273 0.515036 0.000000
C 0.620804 0.644997 0.532705 0.000000
H 0.628619 0.647968 0.552581 0.000000
C 0.597392 0.626424 0.533892 0.000000
H 0.603233 0.609058 0.544861 0.000000
H 0.581736 0.635479 0.545567 0.000000
C 0.578239 0.647828 0.494897 0.000000
H 0.570304 0.645591 0.474947 0.000000
H 0.562471 0.656226 0.507008 0.000000
C 0.622788 0.656126 0.476529 0.000000
H 0.639408 0.669830 0.475790 0.000000
H 0.615561 0.653737 0.456364 0.000000
C 0.611916 0.671259 0.521558 0.000000
H 0.596728 0.679888 0.534182 0.000000
H 0.628467 0.685062 0.521066 0.000000
C 0.601184 0.667119 0.493981 0.000000
H 0.594434 0.685959 0.486023 0.000000
C 0.544869 0.582203 0.587465 0.000000
C 0.544439 0.603657 0.608547 0.000000
C 0.518004 0.603901 0.623255 0.000000
H 0.500960 0.606876 0.610752 0.000000
H 0.515063 0.584670 0.632568 0.000000
C 0.517862 0.625104 0.644343 0.000000
H 0.498538 0.625545 0.653909 0.000000
C 0.523479 0.651749 0.631876 0.000000
H 0.508445 0.656261 0.617103 0.000000
H 0.522574 0.667151 0.646921 0.000000
C 0.550608 0.651556 0.619147 0.000000
H 0.554706 0.670991 0.610752 0.000000
C 0.551472 0.630944 0.597456 0.000000
H 0.538947 0.637694 0.581551 0.000000
H 0.571363 0.630305 0.589202 0.000000
C 0.565600 0.597666 0.629677 0.000000
H 0.562168 0.578316 0.638566 0.000000
H 0.585209 0.597032 0.620661 0.000000
C 0.538837 0.618881 0.664697 0.000000
H 0.538611 0.633785 0.680279 0.000000
H 0.534756 0.599851 0.673969 0.000000
C 0.571355 0.645170 0.639680 0.000000
H 0.590969 0.645270 0.630701 0.000000
H 0.571296 0.660185 0.655166 0.000000
C 0.565597 0.618326 0.651428 0.000000
H 0.580735 0.613467 0.665981 0.000000
C 0.415063 0.420243 0.455836 0.000000
C 0.396781 0.410764 0.433895 0.000000
C 0.392100 0.432188 0.412978 0.000000
H 0.383634 0.449685 0.422309 0.000000
H 0.409827 0.438856 0.403188 0.000000
C 0.373551 0.422297 0.391740 0.000000
H 0.371106 0.437543 0.376699 0.000000
C 0.346951 0.416122 0.403850 0.000000
H 0.338564 0.433896 0.412761 0.000000
H 0.333249 0.409510 0.388570 0.000000
C 0.350264 0.394894 0.424556 0.000000
H 0.331173 0.390584 0.433555 0.000000
C 0.369343 0.404427 0.445610 0.000000
H 0.371004 0.389193 0.460816 0.000000
H 0.361033 0.421929 0.455144 0.000000
C 0.406511 0.384967 0.421367 0.000000
H 0.426220 0.385874 0.413200 0.000000
H 0.407341 0.369694 0.436469 0.000000
C 0.385002 0.397634 0.379185 0.000000
H 0.372127 0.390930 0.363236 0.000000
H 0.404250 0.402047 0.370514 0.000000
C 0.361046 0.370150 0.411748 0.000000
H 0.362812 0.354420 0.426391 0.000000
H 0.347473 0.363199 0.396492 0.000000
C 0.387767 0.376061 0.399776 0.000000
H 0.395500 0.358225 0.390471 0.000000
C 0.479668 0.376370 0.475003 0.000000
C 0.473861 0.347269 0.479440 0.000000
C 0.444130 0.341462 0.480034 0.000000
H 0.432921 0.352506 0.494419 0.000000
H 0.435558 0.346885 0.461070 0.000000
C 0.439275 0.312380 0.484939 0.000000
H 0.418082 0.308791 0.486408 0.000000
C 0.452563 0.304083 0.510478 0.000000
H 0.444728 0.315617 0.526929 0.000000
H 0.448294 0.283346 0.514562 0.000000
C 0.482182 0.308116 0.508424 0.000000
H 0.491635 0.301507 0.526616 0.000000
C 0.488052 0.337078 0.504160 0.000000
H 0.483439 0.347536 0.522166 0.000000
H 0.509251 0.339600 0.501502 0.000000
C 0.484897 0.330848 0.456236 0.000000
H 0.475860 0.337111 0.437656 0.000000
H 0.506156 0.333948 0.454193 0.000000
C 0.450403 0.296625 0.462133 0.000000
H 0.446588 0.275621 0.465130 0.000000
H 0.440727 0.302380 0.443752 0.000000
C 0.492980 0.292439 0.485408 0.000000
H 0.514327 0.295143 0.483988 0.000000
H 0.489367 0.271404 0.488479 0.000000
C 0.479807 0.301550 0.460193 0.000000
H 0.487826 0.290532 0.443504 0.000000
