data_RCC3a_PM
_symmetry_space_group_name_H-M   'P 1'
_cell_length_a 48.559788
_cell_length_b 48.559788
_cell_length_c 48.559788
_cell_angle_alpha 90.000000
_cell_angle_beta 90.000000
_cell_angle_gamma 90.000000
_symmetry_Int_Tables_number 1

loop_
_symmetry_equiv_pos_as_xyz
 'x, y, z'

loop_
_atom_site_label
_atom_site_fract_x
_atom_site_fract_y
_atom_site_fract_z
_atom_site_charge
C 0.430324 0.502395 0.425533 0.000000
C 0.424234 0.527443 0.438760 0.000000
H 0.428748 0.546721 0.428524 0.000000
C 0.453435 0.463514 0.345890 0.000000
H 0.448561 0.442457 0.353417 0.000000
H 0.433873 0.475149 0.344113 0.000000
C 0.443269 0.502210 0.397273 0.000000
C 0.473553 0.478106 0.365496 0.000000
C 0.466739 0.462089 0.316996 0.000000
H 0.453433 0.449585 0.303196 0.000000
H 0.467798 0.483225 0.308237 0.000000
N 0.464873 0.480595 0.394164 0.000000
H 0.426051 0.497807 0.382968 0.000000
H 0.451015 0.522916 0.391347 0.000000
H 0.478338 0.498993 0.357062 0.000000
C 0.498628 0.514626 0.414717 0.000000
H 0.518162 0.516739 0.426021 0.000000
H 0.500413 0.526214 0.395074 0.000000
H 0.482847 0.524238 0.427827 0.000000
C 0.499088 0.603682 0.523020 0.000000
C 0.526686 0.601762 0.514706 0.000000
H 0.533184 0.611119 0.495509 0.000000
C 0.419730 0.646773 0.506467 0.000000
H 0.410262 0.639269 0.525925 0.000000
H 0.436147 0.661696 0.511847 0.000000
C 0.478648 0.619434 0.505765 0.000000
C 0.431449 0.622685 0.489563 0.000000
C 0.398039 0.661911 0.488756 0.000000
H 0.387667 0.677823 0.501510 0.000000
H 0.408678 0.672718 0.471587 0.000000
N 0.451644 0.605134 0.503211 0.000000
H 0.475665 0.639218 0.516774 0.000000
H 0.487280 0.625035 0.485307 0.000000
H 0.440367 0.631093 0.470090 0.000000
C 0.582311 0.501605 0.439790 0.000000
C 0.564292 0.490663 0.420032 0.000000
H 0.557672 0.503395 0.402960 0.000000
C 0.643509 0.568252 0.452617 0.000000
H 0.654922 0.557619 0.469409 0.000000
H 0.646663 0.556408 0.433339 0.000000
C 0.590884 0.531435 0.437581 0.000000
C 0.612739 0.570399 0.459620 0.000000
C 0.654987 0.597625 0.448447 0.000000
H 0.677664 0.596544 0.445632 0.000000
H 0.646082 0.606480 0.429285 0.000000
N 0.598602 0.544234 0.464421 0.000000
H 0.608858 0.531486 0.423476 0.000000
H 0.574784 0.543732 0.426928 0.000000
H 0.602011 0.581959 0.442808 0.000000
C 0.554344 0.463657 0.422464 0.000000
C 0.564472 0.446788 0.443641 0.000000
H 0.558103 0.425443 0.444626 0.000000
C 0.514645 0.462652 0.339746 0.000000
H 0.519604 0.484349 0.334274 0.000000
H 0.534233 0.450947 0.340730 0.000000
C 0.533668 0.451993 0.402356 0.000000
C 0.499433 0.461316 0.367432 0.000000
C 0.496079 0.449662 0.317423 0.000000
H 0.505792 0.452558 0.296917 0.000000
H 0.494508 0.427128 0.321202 0.000000
N 0.514251 0.472895 0.390984 0.000000
H 0.546128 0.443004 0.385406 0.000000
H 0.522268 0.434422 0.411618 0.000000
H 0.493846 0.439394 0.371832 0.000000
C 0.489460 0.469281 0.437457 0.000000
H 0.482651 0.447627 0.434784 0.000000
H 0.509021 0.469949 0.449076 0.000000
H 0.474488 0.479889 0.450922 0.000000
C 0.509097 0.414533 0.563774 0.000000
C 0.480299 0.414299 0.561071 0.000000
H 0.470533 0.399419 0.547637 0.000000
C 0.584846 0.365295 0.550390 0.000000
H 0.597456 0.379082 0.563620 0.000000
H 0.569940 0.354300 0.563741 0.000000
C 0.526085 0.393035 0.549186 0.000000
C 0.569882 0.381874 0.527892 0.000000
C 0.603350 0.343558 0.536291 0.000000
H 0.616029 0.333044 0.552162 0.000000
H 0.590039 0.327707 0.526469 0.000000
N 0.552035 0.404172 0.537264 0.000000
H 0.531115 0.377715 0.565360 0.000000
H 0.513840 0.381533 0.533636 0.000000
H 0.557764 0.367331 0.514756 0.000000
C 0.410444 0.477352 0.464230 0.000000
C 0.422553 0.477550 0.438029 0.000000
H 0.426545 0.458222 0.427599 0.000000
C 0.353075 0.428830 0.514924 0.000000
H 0.345340 0.446217 0.527674 0.000000
H 0.346461 0.432414 0.493334 0.000000
C 0.403404 0.449981 0.477185 0.000000
C 0.384549 0.426779 0.516749 0.000000
C 0.340622 0.401380 0.525067 0.000000
H 0.317840 0.403352 0.526066 0.000000
H 0.345464 0.384926 0.509890 0.000000
N 0.399696 0.451208 0.507626 0.000000
H 0.383925 0.443449 0.467100 0.000000
H 0.418739 0.434053 0.471336 0.000000
H 0.391527 0.408385 0.504723 0.000000
C 0.505281 0.451435 0.597662 0.000000
C 0.521385 0.432800 0.582517 0.000000
H 0.543486 0.432198 0.585547 0.000000
C 0.506259 0.507785 0.670162 0.000000
H 0.483521 0.510451 0.669902 0.000000
H 0.510849 0.486308 0.676417 0.000000
C 0.518495 0.469609 0.619085 0.000000
C 0.518682 0.514160 0.641722 0.000000
C 0.519441 0.527362 0.691533 0.000000
H 0.508941 0.524665 0.711696 0.000000
H 0.541412 0.521570 0.694382 0.000000
N 0.508026 0.498418 0.618462 0.000000
H 0.513017 0.460028 0.639073 0.000000
H 0.541352 0.468829 0.617986 0.000000
H 0.541537 0.511620 0.642981 0.000000
C 0.582894 0.457211 0.463280 0.000000
C 0.592763 0.484212 0.460328 0.000000
H 0.608253 0.491845 0.474464 0.000000
C 0.607143 0.375259 0.493922 0.000000
H 0.593050 0.363073 0.480600 0.000000
H 0.622451 0.385557 0.480470 0.000000
C 0.593702 0.439856 0.486719 0.000000
C 0.590970 0.396524 0.510786 0.000000
C 0.622507 0.356047 0.514096 0.000000
H 0.632450 0.339121 0.502330 0.000000
H 0.639124 0.367899 0.524496 0.000000
N 0.575259 0.416637 0.494689 0.000000
H 0.613784 0.431751 0.479316 0.000000
H 0.598885 0.452904 0.504782 0.000000
H 0.605553 0.407555 0.524820 0.000000
C 0.546100 0.588154 0.531215 0.000000
C 0.537808 0.577046 0.556684 0.000000
H 0.553065 0.568308 0.570329 0.000000
C 0.617727 0.616055 0.481432 0.000000
H 0.604618 0.625543 0.465216 0.000000
H 0.615316 0.628289 0.500568 0.000000
C 0.576175 0.588082 0.523277 0.000000
C 0.609583 0.585803 0.486190 0.000000
C 0.648335 0.617041 0.472825 0.000000
H 0.653872 0.638504 0.467089 0.000000
H 0.661333 0.611123 0.490726 0.000000
N 0.580932 0.580795 0.493825 0.000000
H 0.583299 0.609438 0.527085 0.000000
H 0.588626 0.574968 0.537349 0.000000
H 0.623490 0.576729 0.502147 0.000000
C 0.510122 0.578314 0.565001 0.000000
C 0.491203 0.592611 0.548480 0.000000
H 0.470067 0.594882 0.555346 0.000000
C 0.527563 0.562963 0.653029 0.000000
H 0.550107 0.559451 0.651249 0.000000
H 0.523276 0.584686 0.647323 0.000000
C 0.500164 0.567244 0.592351 0.000000
C 0.511670 0.543241 0.634153 0.000000
C 0.517990 0.558050 0.682970 0.000000
H 0.530935 0.570475 0.697143 0.000000
H 0.496374 0.565320 0.685206 0.000000
N 0.518010 0.545499 0.604707 0.000000
H 0.499399 0.585506 0.606156 0.000000
H 0.478473 0.560132 0.590761 0.000000
H 0.489063 0.546421 0.637497 0.000000
C 0.411538 0.527587 0.464778 0.000000
C 0.403816 0.502451 0.476782 0.000000
H 0.392328 0.502550 0.495902 0.000000
C 0.388737 0.616648 0.462601 0.000000
H 0.399812 0.622594 0.443445 0.000000
H 0.371956 0.602207 0.456899 0.000000
C 0.403923 0.553887 0.479604 0.000000
C 0.408501 0.603057 0.483139 0.000000
C 0.376055 0.642334 0.476436 0.000000
H 0.363530 0.653775 0.461066 0.000000
H 0.361958 0.635615 0.493172 0.000000
N 0.422067 0.577844 0.473453 0.000000
H 0.382513 0.558483 0.472933 0.000000
H 0.402623 0.550295 0.502187 0.000000
H 0.396961 0.598692 0.502631 0.000000
C 0.463969 0.433047 0.575834 0.000000
C 0.476571 0.451100 0.594528 0.000000
H 0.464024 0.464773 0.606940 0.000000
C 0.383422 0.394215 0.555725 0.000000
H 0.393033 0.377911 0.542839 0.000000
H 0.389262 0.390477 0.577472 0.000000
C 0.432968 0.431753 0.574356 0.000000
C 0.392691 0.423014 0.546252 0.000000
C 0.351678 0.392628 0.553647 0.000000
H 0.344903 0.371241 0.558138 0.000000
H 0.342491 0.406249 0.569579 0.000000
N 0.422306 0.428155 0.545863 0.000000
H 0.427352 0.413520 0.586892 0.000000
H 0.423202 0.449619 0.584838 0.000000
H 0.382279 0.438822 0.559373 0.000000
C 0.491746 0.484070 0.409281 0.000000
H 0.562130 0.415222 0.551707 0.000000
H 0.567769 0.407524 0.477558 0.000000
H 0.444546 0.600270 0.522147 0.000000
H 0.425303 0.579016 0.452941 0.000000
H 0.388999 0.468327 0.512634 0.000000
H 0.431837 0.412002 0.536871 0.000000
H 0.611248 0.531423 0.474841 0.000000
H 0.568611 0.592390 0.481727 0.000000
H 0.487250 0.498277 0.619430 0.000000
H 0.538000 0.550667 0.602192 0.000000
