data_RCC3b_PM
_symmetry_space_group_name_H-M   'P 1'
_cell_length_a 45.915713
_cell_length_b 45.915713
_cell_length_c 45.915713
_cell_angle_alpha 90.000000
_cell_angle_beta 90.000000
_cell_angle_gamma 90.000000
_symmetry_Int_Tables_number 1

loop_
_symmetry_equiv_pos_as_xyz
 'x, y, z'

loop_
_atom_site_label
_atom_site_fract_x
_atom_site_fract_y
_atom_site_fract_z
_atom_site_charge
C 0.633212 0.349387 0.515465 0.000000
H 0.617893 0.332079 0.522740 0.000000
H 0.655216 0.343508 0.523606 0.000000
C 0.623849 0.378721 0.529035 0.000000
H 0.641000 0.395467 0.525437 0.000000
H 0.620966 0.375851 0.552871 0.000000
C 0.595062 0.388101 0.514994 0.000000
H 0.578420 0.370642 0.518528 0.000000
N 0.583586 0.416149 0.524552 0.000000
C 0.566186 0.413235 0.551482 0.000000
H 0.578909 0.401220 0.568212 0.000000
H 0.546019 0.400380 0.547378 0.000000
C 0.558747 0.442506 0.564522 0.000000
C 0.534018 0.445024 0.582289 0.000000
H 0.520205 0.426178 0.585569 0.000000
H 0.570552 0.449267 0.495302 0.000000
C 0.581855 0.585643 0.336779 0.000000
H 0.604978 0.585135 0.343951 0.000000
H 0.579520 0.603814 0.320986 0.000000
C 0.562210 0.591543 0.363477 0.000000
H 0.539527 0.596170 0.356298 0.000000
H 0.570524 0.610958 0.375253 0.000000
C 0.563097 0.564738 0.383338 0.000000
H 0.586200 0.560346 0.389757 0.000000
N 0.544721 0.566181 0.409200 0.000000
C 0.559652 0.581130 0.433491 0.000000
H 0.568268 0.602451 0.425968 0.000000
H 0.578658 0.568166 0.441206 0.000000
C 0.539195 0.587519 0.458459 0.000000
C 0.550575 0.590630 0.486625 0.000000
H 0.573679 0.587459 0.490122 0.000000
H 0.515057 0.532922 0.420868 0.000000
C 0.358686 0.394921 0.401687 0.000000
H 0.350937 0.412584 0.387047 0.000000
H 0.340454 0.379262 0.404525 0.000000
C 0.366672 0.408167 0.431592 0.000000
H 0.370573 0.390538 0.447762 0.000000
H 0.348194 0.421657 0.439446 0.000000
C 0.393958 0.427009 0.427820 0.000000
H 0.389530 0.444174 0.411087 0.000000
N 0.405211 0.440361 0.454348 0.000000
C 0.390384 0.468173 0.460814 0.000000
H 0.366404 0.464973 0.460465 0.000000
H 0.395514 0.484826 0.443916 0.000000
C 0.397941 0.479493 0.490772 0.000000
C 0.395846 0.509443 0.496350 0.000000
H 0.389771 0.524018 0.478836 0.000000
H 0.449338 0.437272 0.467271 0.000000
C 0.633638 0.350054 0.481727 0.000000
H 0.652564 0.363283 0.474432 0.000000
H 0.636783 0.327587 0.473339 0.000000
C 0.605481 0.362983 0.468554 0.000000
H 0.586869 0.347882 0.472167 0.000000
H 0.608451 0.365727 0.444705 0.000000
C 0.599697 0.392516 0.482948 0.000000
H 0.618980 0.407018 0.479368 0.000000
N 0.573142 0.407325 0.473774 0.000000
C 0.577819 0.424514 0.446956 0.000000
H 0.588076 0.410626 0.430001 0.000000
H 0.593034 0.442992 0.451105 0.000000
C 0.549544 0.435528 0.434316 0.000000
C 0.549795 0.460555 0.416796 0.000000
H 0.570091 0.472081 0.413467 0.000000
H 0.542056 0.423922 0.503472 0.000000
C 0.406782 0.427154 0.663343 0.000000
H 0.404479 0.404210 0.655950 0.000000
H 0.389165 0.431459 0.679346 0.000000
C 0.403004 0.447638 0.636892 0.000000
H 0.401165 0.470633 0.644331 0.000000
H 0.382617 0.441823 0.625244 0.000000
C 0.429329 0.443792 0.616744 0.000000
H 0.430883 0.420392 0.610082 0.000000
N 0.429833 0.462480 0.591071 0.000000
C 0.412994 0.449680 0.566800 0.000000
H 0.390865 0.443564 0.574484 0.000000
H 0.423527 0.429343 0.558761 0.000000
C 0.408848 0.471015 0.542122 0.000000
C 0.404120 0.460385 0.513874 0.000000
H 0.404497 0.437077 0.510118 0.000000
H 0.466264 0.488117 0.579331 0.000000
C 0.621976 0.626843 0.598537 0.000000
H 0.605479 0.636463 0.613423 0.000000
H 0.639658 0.643121 0.595705 0.000000
C 0.607622 0.620787 0.568682 0.000000
H 0.624490 0.615005 0.552310 0.000000
H 0.596335 0.640806 0.561160 0.000000
C 0.585714 0.595887 0.572396 0.000000
H 0.569337 0.602157 0.589349 0.000000
N 0.570875 0.586573 0.545906 0.000000
C 0.544958 0.604657 0.539871 0.000000
H 0.550972 0.628076 0.540428 0.000000
H 0.527964 0.601322 0.556901 0.000000
C 0.532543 0.598809 0.509965 0.000000
C 0.503010 0.604530 0.504714 0.000000
H 0.489408 0.612121 0.522436 0.000000
H 0.568629 0.542533 0.532534 0.000000
C 0.355447 0.640336 0.509284 0.000000
H 0.356538 0.644721 0.533091 0.000000
H 0.333089 0.645895 0.501873 0.000000
C 0.361077 0.607582 0.503901 0.000000
H 0.356104 0.601927 0.480863 0.000000
H 0.346481 0.594606 0.518175 0.000000
C 0.393017 0.601067 0.511051 0.000000
H 0.397467 0.607451 0.534154 0.000000
N 0.402394 0.571140 0.506050 0.000000
C 0.395896 0.552320 0.531356 0.000000
H 0.372641 0.554770 0.537632 0.000000
H 0.409127 0.558875 0.550612 0.000000
C 0.400503 0.520477 0.524502 0.000000
C 0.406662 0.501092 0.547302 0.000000
H 0.408926 0.509449 0.569251 0.000000
H 0.439967 0.560311 0.481694 0.000000
C 0.574627 0.556509 0.321356 0.000000
H 0.553609 0.558930 0.309541 0.000000
H 0.591702 0.551727 0.304907 0.000000
C 0.572259 0.530616 0.342745 0.000000
H 0.594080 0.525206 0.351765 0.000000
H 0.564027 0.511246 0.330821 0.000000
C 0.551107 0.539014 0.367154 0.000000
H 0.529533 0.544796 0.357352 0.000000
N 0.547182 0.517288 0.389997 0.000000
C 0.524807 0.495577 0.381969 0.000000
H 0.529678 0.486506 0.360071 0.000000
H 0.502884 0.505892 0.380627 0.000000
C 0.524308 0.470154 0.402821 0.000000
C 0.498582 0.453984 0.405985 0.000000
H 0.479271 0.460628 0.394172 0.000000
H 0.550981 0.527054 0.434873 0.000000
C 0.634651 0.599022 0.612874 0.000000
H 0.654610 0.592449 0.600841 0.000000
H 0.641173 0.604045 0.635617 0.000000
C 0.612928 0.573300 0.612977 0.000000
H 0.594655 0.577875 0.628203 0.000000
H 0.624326 0.553378 0.620590 0.000000
C 0.601600 0.568952 0.581888 0.000000
H 0.620494 0.564925 0.567020 0.000000
N 0.579866 0.546080 0.578254 0.000000
C 0.593580 0.517228 0.574252 0.000000
H 0.609640 0.513263 0.591913 0.000000
H 0.605790 0.516353 0.553281 0.000000
C 0.571600 0.492836 0.575814 0.000000
C 0.577598 0.466432 0.561667 0.000000
H 0.597444 0.464365 0.549099 0.000000
H 0.539709 0.552746 0.556651 0.000000
C 0.377692 0.660232 0.493528 0.000000
H 0.372978 0.659910 0.469778 0.000000
H 0.374854 0.683008 0.501212 0.000000
C 0.409582 0.650723 0.498513 0.000000
H 0.416001 0.654749 0.521537 0.000000
H 0.424062 0.663828 0.484241 0.000000
C 0.412235 0.618316 0.490991 0.000000
H 0.405139 0.614913 0.467917 0.000000
N 0.440884 0.605409 0.495590 0.000000
C 0.460105 0.609955 0.470172 0.000000
H 0.460376 0.633377 0.464158 0.000000
H 0.451856 0.597804 0.450846 0.000000
C 0.491226 0.601497 0.476626 0.000000
C 0.509545 0.593337 0.453579 0.000000
H 0.500766 0.592301 0.431717 0.000000
H 0.447442 0.566564 0.519443 0.000000
C 0.436711 0.430719 0.678525 0.000000
H 0.436908 0.451750 0.690561 0.000000
H 0.439580 0.413018 0.694783 0.000000
C 0.462493 0.430220 0.656908 0.000000
H 0.465180 0.407995 0.647617 0.000000
H 0.482812 0.435974 0.668704 0.000000
C 0.456457 0.452464 0.632767 0.000000
H 0.453364 0.474467 0.642830 0.000000
N 0.478267 0.454044 0.609735 0.000000
C 0.502551 0.473606 0.617743 0.000000
H 0.511184 0.467465 0.639499 0.000000
H 0.494920 0.496580 0.619398 0.000000
C 0.527658 0.471309 0.596631 0.000000
C 0.546733 0.494970 0.593537 0.000000
H 0.542554 0.514796 0.605629 0.000000
H 0.467701 0.451900 0.564931 0.000000
C 0.384659 0.379208 0.386942 0.000000
H 0.388947 0.358469 0.398719 0.000000
H 0.378701 0.373549 0.364193 0.000000
C 0.412773 0.397731 0.386771 0.000000
H 0.410249 0.416572 0.371735 0.000000
H 0.431139 0.384143 0.378826 0.000000
C 0.418722 0.408138 0.417918 0.000000
H 0.420634 0.388728 0.432566 0.000000
N 0.444050 0.426978 0.421494 0.000000
C 0.471101 0.409895 0.425084 0.000000
H 0.472970 0.393665 0.407234 0.000000
H 0.470740 0.397467 0.445923 0.000000
C 0.497919 0.428855 0.423452 0.000000
C 0.523565 0.419603 0.437235 0.000000
H 0.523383 0.399521 0.449595 0.000000
H 0.442364 0.467417 0.443528 0.000000
C 0.565868 0.425821 0.499286 0.000000
C 0.538624 0.535079 0.415627 0.000000
C 0.436659 0.444255 0.447829 0.000000
C 0.461377 0.464918 0.584375 0.000000
C 0.563342 0.555741 0.552173 0.000000
C 0.434150 0.574191 0.500679 0.000000
