data_WC1_PM
_symmetry_space_group_name_H-M   'P 1'
_cell_length_a 56.982007
_cell_length_b 56.982007
_cell_length_c 56.982007
_cell_angle_alpha 90.000000
_cell_angle_beta 90.000000
_cell_angle_gamma 90.000000
_symmetry_Int_Tables_number 1

loop_
_symmetry_equiv_pos_as_xyz
 'x, y, z'

loop_
_atom_site_label
_atom_site_fract_x
_atom_site_fract_y
_atom_site_fract_z
_atom_site_charge
N 0.549094 0.575826 0.413117 0.000000
N 0.582512 0.554874 0.424795 0.000000
N 0.570207 0.587689 0.446359 0.000000
N 0.472449 0.674168 0.429817 0.000000
N 0.567753 0.481202 0.323735 0.000000
N 0.670992 0.573625 0.520455 0.000000
N 0.392616 0.537729 0.540888 0.000000
N 0.409100 0.574118 0.531013 0.000000
N 0.390501 0.551450 0.502175 0.000000
N 0.421413 0.560216 0.661015 0.000000
N 0.425315 0.664629 0.445314 0.000000
N 0.321624 0.450672 0.472646 0.000000
N 0.542844 0.460637 0.613026 0.000000
N 0.555972 0.499623 0.613635 0.000000
N 0.578204 0.470777 0.594573 0.000000
N 0.456055 0.530569 0.683069 0.000000
N 0.664699 0.558412 0.568561 0.000000
N 0.563771 0.340904 0.579814 0.000000
N 0.463100 0.387757 0.457007 0.000000
N 0.471498 0.405549 0.420924 0.000000
N 0.501631 0.387706 0.442582 0.000000
N 0.341964 0.416423 0.441180 0.000000
N 0.554829 0.432596 0.330859 0.000000
N 0.535141 0.319883 0.543477 0.000000
C 0.551885 0.590843 0.431432 0.000000
C 0.585604 0.569760 0.443181 0.000000
C 0.564308 0.557802 0.409667 0.000000
C 0.535159 0.610446 0.435043 0.000000
C 0.517850 0.615493 0.418190 0.000000
H 0.516437 0.605177 0.402288 0.000000
C 0.502161 0.634042 0.421581 0.000000
H 0.488978 0.637469 0.408312 0.000000
C 0.503367 0.647849 0.441987 0.000000
C 0.520504 0.642739 0.458900 0.000000
H 0.521695 0.653066 0.474812 0.000000
C 0.536310 0.624311 0.455449 0.000000
H 0.549338 0.620863 0.468836 0.000000
C 0.486845 0.667344 0.446117 0.000000
H 0.486836 0.675980 0.463073 0.000000
C 0.605634 0.566579 0.459525 0.000000
C 0.610965 0.583809 0.476386 0.000000
H 0.600569 0.599671 0.477698 0.000000
C 0.629950 0.580899 0.491672 0.000000
H 0.633629 0.594489 0.504428 0.000000
C 0.643892 0.560599 0.490492 0.000000
C 0.638519 0.543324 0.473798 0.000000
H 0.649012 0.527512 0.472611 0.000000
C 0.619649 0.546307 0.458399 0.000000
H 0.616029 0.532656 0.445686 0.000000
C 0.664015 0.557053 0.506429 0.000000
H 0.673167 0.540368 0.506109 0.000000
C 0.561104 0.541623 0.389515 0.000000
C 0.577657 0.523933 0.384781 0.000000
H 0.593001 0.521751 0.395817 0.000000
C 0.574646 0.508839 0.365665 0.000000
H 0.587651 0.495356 0.362478 0.000000
C 0.554947 0.511028 0.350999 0.000000
C 0.538353 0.528547 0.355748 0.000000
H 0.523046 0.530542 0.344663 0.000000
C 0.541440 0.543756 0.374742 0.000000
H 0.528334 0.557164 0.377839 0.000000
C 0.551217 0.495120 0.330894 0.000000
H 0.534419 0.495401 0.321923 0.000000
C 0.404375 0.557443 0.547398 0.000000
C 0.402256 0.571240 0.508351 0.000000
C 0.385604 0.534597 0.518318 0.000000
C 0.411484 0.560924 0.572173 0.000000
C 0.404004 0.545218 0.589686 0.000000
H 0.393163 0.530223 0.585322 0.000000
C 0.410257 0.548790 0.613120 0.000000
H 0.404204 0.536398 0.626198 0.000000
C 0.424295 0.568012 0.619519 0.000000
C 0.432004 0.583565 0.602082 0.000000
H 0.442862 0.598497 0.606650 0.000000
C 0.425575 0.580154 0.578655 0.000000
H 0.431678 0.592567 0.565632 0.000000
C 0.431189 0.571991 0.644157 0.000000
H 0.444494 0.585043 0.648047 0.000000
C 0.407151 0.589683 0.490681 0.000000
C 0.416091 0.611616 0.497585 0.000000
H 0.419750 0.615317 0.515867 0.000000
C 0.420225 0.629186 0.480968 0.000000
H 0.427095 0.645912 0.486816 0.000000
C 0.415655 0.625096 0.457085 0.000000
C 0.407025 0.603150 0.450100 0.000000
H 0.403482 0.599570 0.431758 0.000000
C 0.402684 0.585627 0.466727 0.000000
H 0.395911 0.568903 0.460786 0.000000
C 0.419979 0.643328 0.439231 0.000000
H 0.418665 0.638713 0.420810 0.000000
C 0.372427 0.513256 0.511454 0.000000
C 0.361772 0.511735 0.489243 0.000000
H 0.363060 0.526067 0.476820 0.000000
C 0.349098 0.491759 0.482810 0.000000
H 0.341093 0.491150 0.465585 0.000000
C 0.346957 0.472786 0.498411 0.000000
C 0.357672 0.474163 0.520509 0.000000
H 0.356279 0.459718 0.532804 0.000000
C 0.370192 0.494247 0.527046 0.000000
H 0.378190 0.494792 0.544268 0.000000
C 0.333858 0.451414 0.491841 0.000000
H 0.334545 0.436260 0.503332 0.000000
C 0.539666 0.483316 0.619683 0.000000
C 0.575301 0.493511 0.601105 0.000000
C 0.562076 0.454217 0.600443 0.000000
C 0.518631 0.490301 0.633352 0.000000
C 0.516449 0.513284 0.642095 0.000000
H 0.530061 0.526207 0.639069 0.000000
C 0.496631 0.519946 0.654899 0.000000
H 0.495422 0.537793 0.661319 0.000000
C 0.478495 0.503778 0.659121 0.000000
C 0.480580 0.480871 0.650404 0.000000
H 0.466800 0.468132 0.653445 0.000000
C 0.500489 0.474142 0.637711 0.000000
H 0.501561 0.456312 0.631246 0.000000
C 0.457183 0.510605 0.672154 0.000000
H 0.442343 0.498700 0.672463 0.000000
C 0.592968 0.511470 0.594567 0.000000
C 0.614252 0.504888 0.583952 0.000000
H 0.618131 0.486617 0.580404 0.000000
C 0.630929 0.521839 0.577888 0.000000
H 0.647172 0.516235 0.569746 0.000000
C 0.626579 0.545736 0.582187 0.000000
C 0.605320 0.552335 0.592650 0.000000
H 0.601591 0.570655 0.596125 0.000000
C 0.588712 0.535403 0.598876 0.000000
H 0.572489 0.541111 0.606978 0.000000
C 0.643853 0.563981 0.575845 0.000000
H 0.638944 0.582275 0.577623 0.000000
C 0.565400 0.429496 0.592990 0.000000
C 0.550414 0.411689 0.601213 0.000000
H 0.536216 0.415692 0.613210 0.000000
C 0.553646 0.388412 0.594138 0.000000
H 0.541823 0.375083 0.600728 0.000000
C 0.571869 0.382509 0.578587 0.000000
C 0.586711 0.400253 0.570242 0.000000
H 0.600815 0.396113 0.558173 0.000000
C 0.583615 0.423485 0.577441 0.000000
H 0.595419 0.436748 0.570662 0.000000
C 0.575650 0.358101 0.570770 0.000000
H 0.588743 0.354650 0.557396 0.000000
C 0.486017 0.381711 0.459587 0.000000
C 0.494488 0.399631 0.423188 0.000000
C 0.455689 0.399659 0.437762 0.000000
C 0.493791 0.368763 0.480793 0.000000
C 0.516827 0.360095 0.482613 0.000000
H 0.529358 0.362791 0.468578 0.000000
C 0.523957 0.347693 0.502558 0.000000
H 0.541784 0.341198 0.503467 0.000000
C 0.508189 0.343847 0.521156 0.000000
C 0.485304 0.352695 0.519471 0.000000
H 0.472881 0.350001 0.533599 0.000000
C 0.478132 0.364919 0.499484 0.000000
H 0.460277 0.371414 0.498757 0.000000
C 0.515179 0.330803 0.542395 0.000000
H 0.503144 0.330146 0.557134 0.000000
C 0.430641 0.406322 0.435317 0.000000
C 0.413817 0.397768 0.451234 0.000000
H 0.418842 0.386092 0.465375 0.000000
C 0.390240 0.404085 0.449056 0.000000
H 0.377742 0.397245 0.461632 0.000000
C 0.382977 0.419211 0.431000 0.000000
C 0.399719 0.427893 0.415182 0.000000
H 0.394539 0.439643 0.401164 0.000000
C 0.423304 0.421430 0.417222 0.000000
H 0.435792 0.428409 0.404727 0.000000
C 0.358181 0.426261 0.428557 0.000000
H 0.353592 0.439770 0.415955 0.000000
C 0.511587 0.406277 0.404725 0.000000
C 0.503828 0.415417 0.383150 0.000000
H 0.485270 0.417576 0.379620 0.000000
C 0.519907 0.421833 0.365780 0.000000
H 0.513364 0.428832 0.349360 0.000000
C 0.544126 0.419345 0.369681 0.000000
C 0.551930 0.410307 0.391200 0.000000
H 0.570532 0.408285 0.394612 0.000000
C 0.535856 0.403727 0.408525 0.000000
H 0.542470 0.396842 0.424945 0.000000
C 0.561457 0.426180 0.351685 0.000000
H 0.579973 0.425665 0.356075 0.000000
C 0.455243 0.692941 0.433132 0.000000
H 0.455993 0.699747 0.451474 0.000000
C 0.460800 0.713278 0.416311 0.000000
H 0.478379 0.720561 0.420552 0.000000
H 0.461241 0.706769 0.397903 0.000000
C 0.442414 0.732828 0.418497 0.000000
H 0.443387 0.740780 0.436300 0.000000
H 0.446302 0.746802 0.405486 0.000000
C 0.417596 0.723318 0.414213 0.000000
H 0.404650 0.737612 0.417065 0.000000
H 0.415980 0.717381 0.395687 0.000000
C 0.412051 0.702844 0.430788 0.000000
H 0.411514 0.709326 0.449202 0.000000
H 0.394433 0.695710 0.426393 0.000000
C 0.430447 0.683268 0.428435 0.000000
H 0.429763 0.676330 0.410138 0.000000
C 0.564928 0.464812 0.304162 0.000000
H 0.546412 0.464906 0.297764 0.000000
C 0.580945 0.472361 0.283806 0.000000
H 0.575481 0.489992 0.277475 0.000000
H 0.599419 0.473642 0.289993 0.000000
C 0.579517 0.454884 0.263395 0.000000
H 0.561515 0.455061 0.255833 0.000000
H 0.591954 0.460274 0.249381 0.000000
C 0.585611 0.429991 0.271596 0.000000
H 0.583482 0.417585 0.256701 0.000000
H 0.604275 0.429368 0.277301 0.000000
C 0.569678 0.422364 0.291906 0.000000
H 0.551243 0.421051 0.285578 0.000000
H 0.575205 0.404693 0.298022 0.000000
C 0.571158 0.439816 0.312420 0.000000
H 0.589535 0.439827 0.319151 0.000000
C 0.690760 0.571014 0.536655 0.000000
H 0.698033 0.552857 0.535715 0.000000
C 0.710271 0.588316 0.529728 0.000000
H 0.716679 0.584056 0.511805 0.000000
H 0.703231 0.606526 0.529409 0.000000
C 0.730927 0.587028 0.546961 0.000000
H 0.739372 0.569462 0.545755 0.000000
H 0.744233 0.600412 0.542104 0.000000
C 0.722759 0.591390 0.572231 0.000000
H 0.737865 0.589135 0.584353 0.000000
H 0.716341 0.609750 0.573945 0.000000
C 0.703170 0.574267 0.579144 0.000000
H 0.710256 0.556080 0.579475 0.000000
H 0.696983 0.578627 0.597136 0.000000
C 0.682431 0.575762 0.561943 0.000000
H 0.675007 0.593850 0.562827 0.000000
C 0.427811 0.562826 0.685740 0.000000
H 0.442778 0.575299 0.687654 0.000000
C 0.406734 0.572680 0.699391 0.000000
H 0.402438 0.590486 0.692693 0.000000
H 0.391112 0.561297 0.696671 0.000000
C 0.412179 0.574294 0.725696 0.000000
H 0.426452 0.587252 0.728680 0.000000
H 0.396332 0.580520 0.735193 0.000000
C 0.419551 0.550328 0.735476 0.000000
H 0.424291 0.552213 0.754308 0.000000
H 0.404568 0.537882 0.734285 0.000000
C 0.440633 0.540478 0.721926 0.000000
H 0.456159 0.551960 0.724803 0.000000
H 0.444898 0.522732 0.728831 0.000000
C 0.435170 0.538736 0.695573 0.000000
H 0.420375 0.526148 0.693172 0.000000
C 0.308701 0.429916 0.464823 0.000000
H 0.311806 0.414904 0.477010 0.000000
C 0.282281 0.435391 0.464685 0.000000
H 0.276383 0.439322 0.482862 0.000000
H 0.278792 0.451137 0.453680 0.000000
C 0.268150 0.414535 0.455206 0.000000
H 0.270047 0.399289 0.467255 0.000000
H 0.249265 0.419296 0.454479 0.000000
C 0.276552 0.407670 0.430577 0.000000
H 0.266636 0.392017 0.424490 0.000000
H 0.272979 0.422275 0.418130 0.000000
C 0.302875 0.402076 0.430673 0.000000
H 0.306135 0.386267 0.441670 0.000000
H 0.308580 0.397999 0.412459 0.000000
C 0.317155 0.422937 0.440084 0.000000
H 0.314576 0.438121 0.427996 0.000000
C 0.566659 0.316445 0.572587 0.000000
H 0.579586 0.315077 0.557947 0.000000
C 0.575910 0.302048 0.593447 0.000000
H 0.593493 0.308695 0.598604 0.000000
H 0.563964 0.304105 0.608770 0.000000
C 0.577902 0.275967 0.587072 0.000000
H 0.591342 0.273627 0.573112 0.000000
H 0.583704 0.265925 0.602746 0.000000
C 0.554281 0.266315 0.578568 0.000000
H 0.556477 0.247709 0.573165 0.000000
H 0.541334 0.266835 0.593179 0.000000
C 0.544970 0.280607 0.557743 0.000000
H 0.556957 0.278420 0.542483 0.000000
H 0.527434 0.273768 0.552666 0.000000
C 0.542875 0.306734 0.564121 0.000000
H 0.529872 0.308479 0.578650 0.000000
