data_WC2_PM
_symmetry_space_group_name_H-M   'P 1'
_cell_length_a 54.113829
_cell_length_b 54.113829
_cell_length_c 54.113829
_cell_angle_alpha 90.000000
_cell_angle_beta 90.000000
_cell_angle_gamma 90.000000
_symmetry_Int_Tables_number 1

loop_
_symmetry_equiv_pos_as_xyz
 'x, y, z'

loop_
_atom_site_label
_atom_site_fract_x
_atom_site_fract_y
_atom_site_fract_z
_atom_site_charge
O 0.417904 0.504472 0.441976 0.000000
C 0.428584 0.523709 0.456650 0.000000
H 0.447390 0.518749 0.463663 0.000000
H 0.416928 0.526330 0.473260 0.000000
O 0.428611 0.546350 0.443041 0.000000
C 0.451664 0.552525 0.432935 0.000000
C 0.460503 0.540554 0.411477 0.000000
C 0.484443 0.546161 0.402995 0.000000
H 0.492263 0.535915 0.387817 0.000000
C 0.498501 0.565000 0.413984 0.000000
C 0.489374 0.576759 0.435379 0.000000
C 0.465955 0.570620 0.444625 0.000000
O 0.458104 0.580171 0.467312 0.000000
C 0.448927 0.604846 0.465981 0.000000
H 0.432250 0.605577 0.453970 0.000000
H 0.463169 0.617447 0.458213 0.000000
C 0.442392 0.613708 0.491993 0.000000
H 0.436901 0.633486 0.490976 0.000000
H 0.459336 0.612800 0.503618 0.000000
C 0.421021 0.598658 0.503495 0.000000
H 0.415190 0.583170 0.491271 0.000000
H 0.404675 0.610903 0.505729 0.000000
C 0.427721 0.587968 0.528803 0.000000
H 0.410740 0.579768 0.536968 0.000000
H 0.434259 0.603030 0.541191 0.000000
O 0.446512 0.569582 0.526086 0.000000
C 0.444709 0.520932 0.399004 0.000000
H 0.425041 0.525844 0.402361 0.000000
C 0.446678 0.521051 0.370384 0.000000
H 0.465784 0.517212 0.364168 0.000000
H 0.441772 0.539839 0.363641 0.000000
C 0.429257 0.502163 0.358217 0.000000
H 0.410204 0.505009 0.365351 0.000000
H 0.434937 0.483091 0.363236 0.000000
C 0.429720 0.504489 0.330432 0.000000
C 0.451655 0.500064 0.317221 0.000000
H 0.468468 0.494914 0.326792 0.000000
C 0.451978 0.501937 0.291458 0.000000
H 0.468926 0.498485 0.281418 0.000000
C 0.430386 0.508000 0.278664 0.000000
H 0.430631 0.509272 0.258715 0.000000
C 0.408480 0.512284 0.291629 0.000000
H 0.391745 0.516886 0.281678 0.000000
C 0.408110 0.510587 0.317399 0.000000
H 0.390942 0.513949 0.327133 0.000000
C 0.523883 0.571845 0.404090 0.000000
H 0.527966 0.591103 0.409856 0.000000
C 0.525798 0.573077 0.375450 0.000000
H 0.523112 0.554655 0.366917 0.000000
H 0.544750 0.579163 0.370363 0.000000
C 0.506917 0.590861 0.363645 0.000000
H 0.487917 0.583714 0.366764 0.000000
H 0.509721 0.591106 0.343307 0.000000
C 0.509292 0.616879 0.373363 0.000000
C 0.529892 0.631368 0.367082 0.000000
H 0.543988 0.624143 0.354867 0.000000
C 0.532403 0.655235 0.376637 0.000000
H 0.548329 0.666307 0.371754 0.000000
C 0.514450 0.664782 0.392563 0.000000
H 0.516488 0.683238 0.400006 0.000000
C 0.493871 0.650503 0.398865 0.000000
H 0.480024 0.657865 0.411276 0.000000
C 0.491222 0.626669 0.389252 0.000000
H 0.475278 0.615760 0.394504 0.000000
O 0.503807 0.594078 0.448112 0.000000
C 0.522818 0.583384 0.463010 0.000000
H 0.518299 0.564063 0.468831 0.000000
H 0.524254 0.594385 0.480204 0.000000
O 0.546011 0.584951 0.450449 0.000000
C 0.553437 0.562854 0.439160 0.000000
C 0.543192 0.555542 0.416312 0.000000
C 0.549357 0.532195 0.406661 0.000000
H 0.540103 0.525675 0.390279 0.000000
C 0.566898 0.516997 0.418417 0.000000
C 0.577007 0.524739 0.441202 0.000000
C 0.570412 0.547580 0.451367 0.000000
O 0.577919 0.553265 0.475437 0.000000
C 0.596684 0.571724 0.476896 0.000000
H 0.590562 0.589037 0.467693 0.000000
H 0.613877 0.565108 0.467737 0.000000
C 0.601866 0.577390 0.504086 0.000000
H 0.584415 0.584024 0.512716 0.000000
H 0.615341 0.592863 0.505161 0.000000
C 0.612419 0.554769 0.517952 0.000000
H 0.632145 0.558360 0.522506 0.000000
H 0.612029 0.537837 0.506300 0.000000
C 0.598484 0.549359 0.541926 0.000000
H 0.598146 0.566201 0.553752 0.000000
H 0.608596 0.534576 0.551965 0.000000
O 0.573812 0.541666 0.536390 0.000000
O 0.593407 0.509531 0.454269 0.000000
C 0.581584 0.490170 0.467823 0.000000
H 0.561898 0.494587 0.472303 0.000000
H 0.591164 0.488307 0.485807 0.000000
O 0.584041 0.467325 0.454733 0.000000
C 0.573512 0.491630 0.408278 0.000000
H 0.592652 0.487357 0.414432 0.000000
C 0.575386 0.490586 0.379664 0.000000
H 0.588083 0.505450 0.373326 0.000000
H 0.557292 0.494236 0.370843 0.000000
C 0.585574 0.465641 0.370528 0.000000
H 0.576028 0.449995 0.379758 0.000000
H 0.605464 0.464379 0.375554 0.000000
C 0.582188 0.462872 0.343036 0.000000
C 0.558485 0.458744 0.333176 0.000000
H 0.542552 0.457725 0.345230 0.000000
C 0.555283 0.455827 0.307716 0.000000
H 0.537004 0.452721 0.300240 0.000000
C 0.575675 0.456916 0.291915 0.000000
H 0.573171 0.454611 0.272198 0.000000
C 0.599308 0.460915 0.301554 0.000000
H 0.615076 0.461748 0.289287 0.000000
C 0.602600 0.463875 0.327019 0.000000
H 0.621014 0.466980 0.334196 0.000000
C 0.562725 0.460412 0.441709 0.000000
C 0.556214 0.472458 0.419490 0.000000
C 0.533461 0.466792 0.408330 0.000000
H 0.527628 0.476756 0.392111 0.000000
C 0.518058 0.448299 0.417978 0.000000
C 0.524525 0.436815 0.440491 0.000000
C 0.452728 0.557917 0.548319 0.000000
O 0.508091 0.420595 0.452285 0.000000
C 0.487302 0.432665 0.463418 0.000000
H 0.491161 0.452528 0.467624 0.000000
H 0.483757 0.423834 0.481504 0.000000
O 0.465731 0.429561 0.448346 0.000000
C 0.560267 0.534548 0.557253 0.000000
C 0.435369 0.488451 0.431526 0.000000
C 0.449684 0.496039 0.411059 0.000000
C 0.469169 0.480915 0.403035 0.000000
H 0.481057 0.487333 0.388399 0.000000
C 0.473569 0.457801 0.414013 0.000000
C 0.459445 0.450712 0.434751 0.000000
C 0.494263 0.441118 0.405032 0.000000
H 0.489859 0.421843 0.410662 0.000000
C 0.496779 0.439276 0.376527 0.000000
H 0.513720 0.428444 0.372316 0.000000
H 0.499170 0.457655 0.367808 0.000000
C 0.474482 0.426204 0.364725 0.000000
H 0.457189 0.435558 0.370680 0.000000
H 0.473563 0.406780 0.371323 0.000000
C 0.476280 0.426159 0.336914 0.000000
C 0.495676 0.413640 0.324987 0.000000
H 0.509523 0.403882 0.335624 0.000000
C 0.497276 0.413596 0.299202 0.000000
H 0.512334 0.404037 0.290157 0.000000
C 0.479459 0.425833 0.285108 0.000000
H 0.480721 0.425765 0.265159 0.000000
C 0.459923 0.438030 0.296761 0.000000
H 0.446018 0.447336 0.285824 0.000000
C 0.458283 0.438206 0.322564 0.000000
H 0.442997 0.447707 0.331278 0.000000
O 0.582102 0.495541 0.558013 0.000000
C 0.571416 0.476291 0.543351 0.000000
H 0.583059 0.473689 0.526727 0.000000
H 0.552609 0.481251 0.536338 0.000000
O 0.571389 0.453650 0.556960 0.000000
C 0.548336 0.447475 0.567066 0.000000
C 0.539501 0.459448 0.588498 0.000000
C 0.515557 0.453839 0.597006 0.000000
H 0.507737 0.464085 0.612184 0.000000
C 0.501499 0.435000 0.586017 0.000000
C 0.510626 0.423241 0.564621 0.000000
C 0.534045 0.429380 0.555376 0.000000
O 0.541896 0.419829 0.532689 0.000000
C 0.551071 0.395143 0.534006 0.000000
H 0.536812 0.382547 0.541771 0.000000
H 0.567742 0.394398 0.546028 0.000000
C 0.557608 0.386292 0.508008 0.000000
H 0.540663 0.387200 0.496383 0.000000
H 0.563097 0.366502 0.509010 0.000000
C 0.578978 0.401342 0.496506 0.000000
H 0.595320 0.389083 0.494284 0.000000
H 0.584804 0.416816 0.508741 0.000000
C 0.572279 0.412032 0.471198 0.000000
H 0.565758 0.396965 0.458812 0.000000
H 0.589260 0.420232 0.463033 0.000000
O 0.553487 0.430418 0.473915 0.000000
C 0.555291 0.479068 0.600997 0.000000
H 0.574959 0.474156 0.597640 0.000000
C 0.553322 0.478949 0.629617 0.000000
H 0.558226 0.460149 0.636345 0.000000
H 0.534216 0.482788 0.635833 0.000000
C 0.570743 0.497837 0.641784 0.000000
H 0.565061 0.516898 0.636751 0.000000
H 0.589807 0.494973 0.634663 0.000000
C 0.570280 0.495511 0.669569 0.000000
C 0.548345 0.499936 0.682780 0.000000
H 0.531532 0.505086 0.673208 0.000000
C 0.548022 0.498063 0.708543 0.000000
H 0.531074 0.501515 0.718582 0.000000
C 0.569596 0.492006 0.721334 0.000000
H 0.569369 0.490728 0.741286 0.000000
C 0.591515 0.487703 0.708383 0.000000
H 0.608255 0.483115 0.718323 0.000000
C 0.591905 0.489396 0.682589 0.000000
H 0.609058 0.486051 0.672868 0.000000
C 0.476117 0.428155 0.595911 0.000000
H 0.472057 0.408906 0.590136 0.000000
C 0.474219 0.426918 0.624553 0.000000
H 0.455250 0.420837 0.629638 0.000000
H 0.476906 0.445340 0.633086 0.000000
C 0.493100 0.409134 0.636358 0.000000
H 0.490279 0.408894 0.656694 0.000000
H 0.512083 0.416286 0.633237 0.000000
C 0.490726 0.383116 0.626640 0.000000
C 0.470126 0.368627 0.632921 0.000000
H 0.456013 0.375869 0.645148 0.000000
C 0.467597 0.344765 0.623364 0.000000
H 0.451671 0.333693 0.628247 0.000000
C 0.485550 0.335218 0.607438 0.000000
H 0.483512 0.316762 0.599995 0.000000
C 0.506129 0.349497 0.601136 0.000000
H 0.519971 0.342121 0.588737 0.000000
C 0.508796 0.373326 0.610751 0.000000
H 0.524722 0.384240 0.605497 0.000000
O 0.496188 0.405909 0.551900 0.000000
C 0.477182 0.416616 0.536991 0.000000
H 0.475746 0.405615 0.519797 0.000000
H 0.481700 0.435926 0.531156 0.000000
O 0.453988 0.415049 0.549552 0.000000
C 0.446563 0.437146 0.560841 0.000000
C 0.456808 0.444458 0.583689 0.000000
C 0.450643 0.467805 0.593340 0.000000
H 0.459897 0.474325 0.609722 0.000000
C 0.433102 0.483003 0.581584 0.000000
C 0.422993 0.475261 0.558799 0.000000
C 0.429588 0.452420 0.548634 0.000000
O 0.422099 0.446730 0.524566 0.000000
C 0.403322 0.428290 0.523094 0.000000
H 0.386128 0.434906 0.532252 0.000000
H 0.409438 0.410964 0.532308 0.000000
C 0.398117 0.422626 0.495927 0.000000
H 0.384643 0.407153 0.494852 0.000000
H 0.415569 0.415992 0.487297 0.000000
C 0.387563 0.445237 0.482046 0.000000
H 0.387973 0.462175 0.493715 0.000000
H 0.367838 0.441656 0.477508 0.000000
C 0.401516 0.450641 0.458075 0.000000
H 0.391392 0.465443 0.448023 0.000000
H 0.401838 0.433816 0.446262 0.000000
O 0.426188 0.458334 0.463611 0.000000
O 0.406610 0.490464 0.545734 0.000000
C 0.418416 0.509830 0.532178 0.000000
H 0.408836 0.511693 0.514194 0.000000
H 0.438102 0.505413 0.527698 0.000000
O 0.415959 0.532675 0.545268 0.000000
C 0.426487 0.508370 0.591723 0.000000
H 0.407341 0.512618 0.585566 0.000000
C 0.424612 0.509403 0.620323 0.000000
H 0.442708 0.505764 0.629158 0.000000
H 0.411929 0.494531 0.626688 0.000000
C 0.414424 0.534348 0.629458 0.000000
H 0.394535 0.535610 0.624432 0.000000
H 0.423972 0.550005 0.620243 0.000000
C 0.417812 0.537128 0.656965 0.000000
C 0.441497 0.541262 0.666822 0.000000
H 0.457446 0.542264 0.654756 0.000000
C 0.444717 0.544174 0.692285 0.000000
H 0.462996 0.547279 0.699761 0.000000
C 0.424315 0.543114 0.708087 0.000000
H 0.426811 0.545394 0.727801 0.000000
C 0.400692 0.539085 0.698447 0.000000
H 0.384913 0.538283 0.710715 0.000000
C 0.397400 0.536125 0.672982 0.000000
H 0.378968 0.533025 0.665802 0.000000
C 0.437275 0.539588 0.558292 0.000000
C 0.443769 0.527547 0.580509 0.000000
C 0.466538 0.533196 0.591656 0.000000
H 0.472367 0.523230 0.607901 0.000000
C 0.481942 0.551701 0.582023 0.000000
C 0.475469 0.563171 0.559521 0.000000
C 0.547270 0.442071 0.451667 0.000000
O 0.491908 0.579405 0.547716 0.000000
C 0.512698 0.567335 0.536583 0.000000
H 0.516243 0.576166 0.518497 0.000000
H 0.508839 0.547472 0.532377 0.000000
O 0.534269 0.570439 0.551655 0.000000
C 0.439739 0.465465 0.442736 0.000000
C 0.564626 0.511536 0.568486 0.000000
C 0.550333 0.503956 0.588944 0.000000
C 0.530831 0.519085 0.596966 0.000000
H 0.518943 0.512667 0.611602 0.000000
C 0.526431 0.542199 0.585988 0.000000
C 0.540555 0.549289 0.565250 0.000000
C 0.505737 0.558882 0.594969 0.000000
H 0.510140 0.578157 0.589339 0.000000
C 0.503221 0.560724 0.623474 0.000000
H 0.500832 0.542357 0.632207 0.000000
H 0.486280 0.571556 0.627685 0.000000
C 0.525501 0.573801 0.635274 0.000000
H 0.526420 0.593226 0.628676 0.000000
H 0.542816 0.564456 0.629310 0.000000
C 0.523720 0.573841 0.663087 0.000000
C 0.504329 0.586374 0.675003 0.000000
H 0.490465 0.596137 0.664363 0.000000
C 0.502706 0.586410 0.700797 0.000000
H 0.487653 0.595982 0.709830 0.000000
C 0.520541 0.574167 0.714893 0.000000
H 0.519281 0.574246 0.734856 0.000000
C 0.540082 0.561984 0.703228 0.000000
H 0.553982 0.552664 0.714177 0.000000
C 0.541701 0.561811 0.677449 0.000000
H 0.557003 0.552293 0.668723 0.000000
