data_WC3_PM
_symmetry_space_group_name_H-M   'P 1'
_cell_length_a 53.826195
_cell_length_b 53.826195
_cell_length_c 53.826195
_cell_angle_alpha 90.000000
_cell_angle_beta 90.000000
_cell_angle_gamma 90.000000
_symmetry_Int_Tables_number 1

loop_
_symmetry_equiv_pos_as_xyz
 'x, y, z'

loop_
_atom_site_label
_atom_site_fract_x
_atom_site_fract_y
_atom_site_fract_z
_atom_site_charge
O 0.431345 0.437563 0.539307 0.000000
C 0.454460 0.432121 0.527299 0.000000
H 0.450385 0.422947 0.509350 0.000000
H 0.465136 0.449336 0.522624 0.000000
O 0.468539 0.415070 0.541994 0.000000
C 0.487689 0.426276 0.555581 0.000000
C 0.482503 0.438970 0.577866 0.000000
C 0.501953 0.451332 0.590186 0.000000
H 0.498030 0.462325 0.606469 0.000000
C 0.526573 0.449585 0.581642 0.000000
C 0.531395 0.437069 0.559033 0.000000
C 0.512023 0.425000 0.546494 0.000000
O 0.516551 0.412855 0.523974 0.000000
C 0.522413 0.387195 0.527110 0.000000
H 0.541093 0.385446 0.535780 0.000000
H 0.508599 0.377895 0.539423 0.000000
C 0.522594 0.374160 0.501784 0.000000
H 0.536036 0.383953 0.489503 0.000000
O 0.530823 0.349806 0.504875 0.000000
C 0.511942 0.334087 0.495816 0.000000
C 0.502621 0.317665 0.517125 0.000000
H 0.495078 0.329459 0.532285 0.000000
H 0.487638 0.305102 0.510523 0.000000
H 0.518050 0.306267 0.524756 0.000000
C 0.522773 0.317893 0.475091 0.000000
H 0.508467 0.304919 0.467815 0.000000
H 0.529287 0.329842 0.459574 0.000000
H 0.538813 0.306953 0.482108 0.000000
O 0.491730 0.347650 0.486170 0.000000
C 0.496824 0.372711 0.490114 0.000000
H 0.482263 0.380283 0.502696 0.000000
C 0.495283 0.386543 0.465273 0.000000
H 0.510335 0.379790 0.452764 0.000000
H 0.477077 0.382530 0.456350 0.000000
O 0.497499 0.412620 0.469452 0.000000
O 0.555409 0.436497 0.548810 0.000000
C 0.562985 0.459317 0.537429 0.000000
H 0.574084 0.454840 0.520716 0.000000
H 0.546775 0.470462 0.530725 0.000000
O 0.578677 0.472986 0.553942 0.000000
C 0.566607 0.492730 0.565816 0.000000
C 0.550919 0.488252 0.586277 0.000000
C 0.537031 0.508046 0.596100 0.000000
H 0.523562 0.504504 0.610469 0.000000
C 0.540092 0.532394 0.587167 0.000000
C 0.555876 0.536562 0.566614 0.000000
C 0.569383 0.516780 0.556335 0.000000
O 0.583750 0.520378 0.535000 0.000000
C 0.608537 0.528128 0.540243 0.000000
H 0.608297 0.547355 0.547808 0.000000
H 0.617343 0.515648 0.554230 0.000000
C 0.623879 0.527650 0.516264 0.000000
H 0.614513 0.539674 0.502316 0.000000
O 0.647300 0.537628 0.520969 0.000000
C 0.664921 0.519546 0.513998 0.000000
C 0.680985 0.529991 0.492958 0.000000
H 0.695181 0.516182 0.487180 0.000000
H 0.669150 0.534420 0.476647 0.000000
H 0.690503 0.547276 0.499034 0.000000
C 0.681170 0.513496 0.536554 0.000000
H 0.695885 0.499935 0.531479 0.000000
H 0.690045 0.530639 0.543841 0.000000
H 0.669576 0.505269 0.551511 0.000000
O 0.653510 0.497458 0.505723 0.000000
C 0.627929 0.501382 0.506492 0.000000
H 0.619657 0.487167 0.519033 0.000000
C 0.617140 0.497680 0.480411 0.000000
H 0.624412 0.512464 0.467868 0.000000
H 0.623191 0.479344 0.473048 0.000000
O 0.590654 0.498360 0.481525 0.000000
O 0.557774 0.560208 0.555789 0.000000
C 0.537330 0.566619 0.540010 0.000000
H 0.544673 0.577089 0.523889 0.000000
H 0.527917 0.549864 0.532138 0.000000
O 0.520498 0.582601 0.552913 0.000000
C 0.499373 0.570412 0.562000 0.000000
C 0.500787 0.555674 0.583561 0.000000
C 0.479820 0.541933 0.590745 0.000000
H 0.481251 0.528885 0.605814 0.000000
C 0.456879 0.544957 0.578729 0.000000
C 0.455738 0.559589 0.556969 0.000000
C 0.476915 0.572584 0.548986 0.000000
O 0.476240 0.586563 0.527140 0.000000
C 0.468780 0.611688 0.531172 0.000000
H 0.448797 0.612144 0.536455 0.000000
H 0.479790 0.620281 0.546459 0.000000
C 0.472547 0.626726 0.507304 0.000000
H 0.462090 0.617449 0.492063 0.000000
O 0.462591 0.650400 0.510578 0.000000
C 0.481521 0.667535 0.504707 0.000000
C 0.485247 0.684904 0.526924 0.000000
H 0.467778 0.695023 0.531222 0.000000
H 0.490727 0.673919 0.543537 0.000000
H 0.500148 0.698630 0.522940 0.000000
C 0.473561 0.682529 0.481857 0.000000
H 0.487972 0.696529 0.477044 0.000000
H 0.471036 0.669933 0.465705 0.000000
H 0.455706 0.692253 0.485436 0.000000
O 0.504239 0.655597 0.499501 0.000000
C 0.499906 0.630093 0.500813 0.000000
H 0.512291 0.622285 0.515403 0.000000
C 0.506743 0.618164 0.475879 0.000000
H 0.493645 0.624879 0.461301 0.000000
H 0.525864 0.623912 0.470545 0.000000
O 0.505855 0.591752 0.478066 0.000000
O 0.433700 0.561363 0.543108 0.000000
C 0.427960 0.539666 0.528802 0.000000
H 0.419439 0.545694 0.511078 0.000000
H 0.445008 0.528989 0.523617 0.000000
O 0.410034 0.524736 0.541533 0.000000
C 0.420270 0.503984 0.553433 0.000000
C 0.432098 0.506579 0.576595 0.000000
C 0.444255 0.485930 0.586925 0.000000
H 0.455095 0.488241 0.603575 0.000000
C 0.443077 0.462438 0.575597 0.000000
C 0.431198 0.460168 0.552287 0.000000
C 0.419505 0.480860 0.541560 0.000000
O 0.409069 0.479150 0.517862 0.000000
C 0.383408 0.472534 0.518219 0.000000
H 0.381481 0.452851 0.524239 0.000000
H 0.372895 0.484479 0.531469 0.000000
C 0.372491 0.475546 0.492127 0.000000
H 0.383771 0.464238 0.478993 0.000000
O 0.348307 0.466307 0.491906 0.000000
C 0.332613 0.486021 0.484774 0.000000
C 0.314614 0.491598 0.506105 0.000000
H 0.301685 0.506807 0.500884 0.000000
H 0.303627 0.474774 0.510868 0.000000
H 0.325206 0.497457 0.522849 0.000000
C 0.318090 0.478135 0.461621 0.000000
H 0.331209 0.473907 0.446240 0.000000
H 0.306873 0.461254 0.465505 0.000000
H 0.305496 0.493312 0.455479 0.000000
O 0.346119 0.507753 0.479196 0.000000
C 0.371019 0.502675 0.484071 0.000000
H 0.377340 0.515483 0.499033 0.000000
C 0.386384 0.507951 0.460709 0.000000
H 0.380820 0.494753 0.445762 0.000000
H 0.382505 0.527195 0.454193 0.000000
O 0.412193 0.505583 0.466257 0.000000
C 0.427274 0.506604 0.445145 0.000000
C 0.434473 0.484392 0.433600 0.000000
C 0.450757 0.484795 0.413107 0.000000
C 0.460542 0.507670 0.405235 0.000000
H 0.474433 0.508036 0.390873 0.000000
C 0.452644 0.530124 0.415928 0.000000
C 0.436728 0.529430 0.436782 0.000000
O 0.430554 0.551243 0.449704 0.000000
C 0.450166 0.560712 0.465019 0.000000
H 0.441871 0.568215 0.482286 0.000000
H 0.463299 0.545789 0.471046 0.000000
O 0.462507 0.580798 0.452729 0.000000
C 0.485377 0.574097 0.442286 0.000000
C 0.486251 0.560969 0.419708 0.000000
C 0.509233 0.551990 0.411203 0.000000
H 0.509815 0.540180 0.395095 0.000000
C 0.531491 0.557971 0.423508 0.000000
C 0.530304 0.571303 0.446117 0.000000
C 0.507306 0.579625 0.455156 0.000000
O 0.551855 0.576213 0.459959 0.000000
C 0.561113 0.555262 0.473450 0.000000
H 0.568573 0.561933 0.491407 0.000000
H 0.546100 0.541691 0.478177 0.000000
O 0.581169 0.544061 0.460139 0.000000
C 0.574468 0.522446 0.447316 0.000000
C 0.562424 0.523955 0.424122 0.000000
C 0.554874 0.501869 0.412372 0.000000
H 0.544439 0.502694 0.395290 0.000000
C 0.560417 0.478514 0.422691 0.000000
C 0.571974 0.477378 0.446247 0.000000
C 0.579538 0.499293 0.458070 0.000000
O 0.576131 0.454473 0.458078 0.000000
C 0.554360 0.443618 0.468887 0.000000
H 0.559801 0.434349 0.486421 0.000000
H 0.540240 0.457948 0.474113 0.000000
O 0.544453 0.424908 0.452830 0.000000
C 0.523720 0.432754 0.439210 0.000000
C 0.526744 0.447723 0.417999 0.000000
C 0.505541 0.457478 0.406277 0.000000
H 0.507702 0.470524 0.391276 0.000000
C 0.481517 0.450647 0.414032 0.000000
C 0.478823 0.435469 0.435305 0.000000
C 0.499939 0.426338 0.447531 0.000000
O 0.455213 0.429583 0.444655 0.000000
C 0.443725 0.449238 0.458401 0.000000
H 0.433542 0.440927 0.474228 0.000000
H 0.457652 0.462210 0.466709 0.000000
O 0.425917 0.461801 0.443213 0.000000
C 0.458551 0.460553 0.400893 0.000000
H 0.443277 0.446921 0.403643 0.000000
C 0.460665 0.462477 0.372208 0.000000
H 0.442696 0.469610 0.364857 0.000000
H 0.475140 0.475916 0.366557 0.000000
C 0.466190 0.437387 0.359785 0.000000
H 0.484541 0.430238 0.365956 0.000000
H 0.451881 0.423646 0.365587 0.000000
C 0.466453 0.440105 0.331916 0.000000
C 0.485035 0.454308 0.320255 0.000000
H 0.499502 0.463091 0.331129 0.000000
C 0.485114 0.457140 0.294445 0.000000
H 0.499459 0.468100 0.285595 0.000000
C 0.466683 0.445855 0.280076 0.000000
H 0.466728 0.448127 0.260096 0.000000
C 0.448197 0.431623 0.291497 0.000000
H 0.433931 0.422894 0.280331 0.000000
C 0.448070 0.428704 0.317305 0.000000
H 0.433576 0.417690 0.325873 0.000000
C 0.552802 0.454709 0.409682 0.000000
H 0.565822 0.440002 0.416042 0.000000
C 0.556755 0.454988 0.381141 0.000000
H 0.543253 0.467240 0.371555 0.000000
H 0.575561 0.462611 0.377299 0.000000
C 0.555174 0.428660 0.370081 0.000000
H 0.570501 0.417014 0.377596 0.000000
H 0.537386 0.419921 0.375908 0.000000
C 0.557027 0.429017 0.342140 0.000000
C 0.578888 0.437177 0.330403 0.000000
H 0.594673 0.443219 0.341290 0.000000
C 0.580506 0.437523 0.304464 0.000000
H 0.597338 0.443938 0.295530 0.000000
C 0.560449 0.429521 0.290079 0.000000
H 0.561701 0.429833 0.270022 0.000000
C 0.538807 0.420963 0.301576 0.000000
H 0.523328 0.414606 0.290416 0.000000
C 0.537082 0.420649 0.327495 0.000000
H 0.520199 0.413906 0.336109 0.000000
C 0.556427 0.549353 0.413306 0.000000
H 0.570896 0.562596 0.419826 0.000000
C 0.558825 0.550514 0.384566 0.000000
H 0.577540 0.543549 0.379225 0.000000
H 0.545122 0.538273 0.375284 0.000000
C 0.555809 0.577007 0.374405 0.000000
H 0.538846 0.585794 0.382255 0.000000
H 0.571861 0.588645 0.380190 0.000000
C 0.553912 0.576541 0.346499 0.000000
C 0.530494 0.576923 0.334917 0.000000
H 0.513676 0.577878 0.345911 0.000000
C 0.528696 0.575808 0.309015 0.000000
H 0.510606 0.576047 0.300181 0.000000
C 0.550228 0.574322 0.294563 0.000000
H 0.548814 0.573476 0.274526 0.000000
C 0.573580 0.573819 0.305956 0.000000
H 0.590202 0.572591 0.294714 0.000000
C 0.575459 0.574831 0.331859 0.000000
H 0.593640 0.574227 0.340507 0.000000
C 0.462226 0.554856 0.406263 0.000000
H 0.448353 0.569424 0.410939 0.000000
C 0.464470 0.556615 0.377542 0.000000
H 0.471829 0.575298 0.372631 0.000000
H 0.477937 0.542965 0.370150 0.000000
C 0.439395 0.553171 0.364295 0.000000
H 0.429514 0.536509 0.371409 0.000000
H 0.427403 0.569541 0.368230 0.000000
C 0.443246 0.550141 0.336713 0.000000
C 0.437344 0.569465 0.320206 0.000000
H 0.429626 0.586753 0.327038 0.000000
C 0.441701 0.566690 0.294738 0.000000
H 0.437266 0.581683 0.282082 0.000000
C 0.451854 0.544605 0.285589 0.000000
H 0.455299 0.542517 0.265883 0.000000
C 0.457527 0.525198 0.301848 0.000000
H 0.465330 0.508090 0.294741 0.000000
C 0.453196 0.527876 0.327316 0.000000
H 0.457728 0.512706 0.339732 0.000000
C 0.455865 0.440128 0.587231 0.000000
H 0.445937 0.423234 0.580646 0.000000
C 0.452925 0.438809 0.615900 0.000000
H 0.462616 0.454413 0.625165 0.000000
H 0.432815 0.440374 0.620333 0.000000
C 0.462763 0.414222 0.626704 0.000000
H 0.452297 0.398554 0.618237 0.000000
H 0.482603 0.412118 0.621443 0.000000
C 0.461051 0.411939 0.654746 0.000000
C 0.450376 0.430281 0.670193 0.000000
H 0.442452 0.447138 0.662707 0.000000
C 0.449763 0.427046 0.695968 0.000000
H 0.441614 0.441231 0.707656 0.000000
C 0.459644 0.405599 0.706665 0.000000
H 0.459188 0.403171 0.726615 0.000000
C 0.470102 0.387242 0.691603 0.000000
H 0.477734 0.370599 0.699901 0.000000
C 0.470778 0.390376 0.665828 0.000000
H 0.479005 0.375973 0.654438 0.000000
C 0.433748 0.532086 0.588487 0.000000
H 0.417272 0.543031 0.582500 0.000000
C 0.431431 0.531608 0.617252 0.000000
H 0.413990 0.521712 0.622281 0.000000
H 0.446831 0.521120 0.625985 0.000000
C 0.430613 0.557809 0.628607 0.000000
H 0.445399 0.569590 0.620331 0.000000
H 0.412558 0.566831 0.624241 0.000000
C 0.434109 0.556605 0.656373 0.000000
C 0.415152 0.547127 0.671608 0.000000
H 0.397774 0.540985 0.663563 0.000000
C 0.418644 0.545477 0.697289 0.000000
H 0.403977 0.538139 0.708945 0.000000
C 0.441023 0.553238 0.707938 0.000000
H 0.443678 0.551915 0.727822 0.000000
C 0.459971 0.562678 0.692906 0.000000
H 0.477322 0.568634 0.701154 0.000000
C 0.456562 0.564393 0.667228 0.000000
H 0.471470 0.571606 0.655837 0.000000
C 0.525084 0.553775 0.597811 0.000000
H 0.535697 0.571226 0.594678 0.000000
C 0.521343 0.553245 0.626411 0.000000
H 0.510930 0.570272 0.631820 0.000000
H 0.509953 0.537188 0.632304 0.000000
C 0.545853 0.552720 0.640991 0.000000
H 0.556474 0.535584 0.636535 0.000000
H 0.557417 0.568885 0.635382 0.000000
C 0.540841 0.553252 0.668565 0.000000
C 0.528972 0.533078 0.680215 0.000000
H 0.523634 0.516834 0.669601 0.000000
C 0.524109 0.533668 0.705711 0.000000
H 0.515006 0.518055 0.714561 0.000000
C 0.531092 0.554301 0.719816 0.000000
H 0.527315 0.554725 0.739557 0.000000
C 0.542964 0.574398 0.708425 0.000000
H 0.548373 0.590367 0.719392 0.000000
C 0.547839 0.573900 0.682912 0.000000
H 0.556988 0.589653 0.674380 0.000000
C 0.547728 0.461837 0.595712 0.000000
H 0.564861 0.451218 0.591217 0.000000
C 0.545751 0.459336 0.624378 0.000000
H 0.530607 0.470938 0.632143 0.000000
H 0.541097 0.439715 0.628847 0.000000
C 0.570327 0.466043 0.637321 0.000000
H 0.585020 0.452659 0.631706 0.000000
H 0.576378 0.484802 0.631096 0.000000
C 0.567820 0.465521 0.665226 0.000000
C 0.571276 0.487309 0.679198 0.000000
H 0.575621 0.504712 0.670097 0.000000
C 0.569078 0.486790 0.705066 0.000000
H 0.571665 0.503663 0.715712 0.000000
C 0.563555 0.464539 0.717226 0.000000
H 0.561831 0.464190 0.737253 0.000000
C 0.560387 0.442714 0.703521 0.000000
H 0.556291 0.425428 0.712981 0.000000
C 0.562593 0.443139 0.677652 0.000000
H 0.560308 0.426039 0.667328 0.000000
