data_WC4_PM
_symmetry_space_group_name_H-M   'P 1'
_cell_length_a 42.850000
_cell_length_b 42.850000
_cell_length_c 42.850000
_cell_angle_alpha 90.000000
_cell_angle_beta 90.000000
_cell_angle_gamma 90.000000
_symmetry_Int_Tables_number 1

loop_
_symmetry_equiv_pos_as_xyz
 'x, y, z'

loop_
_atom_site_label
_atom_site_fract_x
_atom_site_fract_y
_atom_site_fract_z
_atom_site_charge
N 0.532777 0.383994 0.446418 0.000000
O 0.537210 0.392746 0.539697 0.000000
C 0.554641 0.414008 0.523407 0.000000
C 0.553404 0.412024 0.490642 0.000000
C 0.571372 0.432703 0.473559 0.000000
H 0.570789 0.431349 0.451435 0.000000
C 0.590273 0.455365 0.487118 0.000000
C 0.590809 0.457512 0.519580 0.000000
C 0.573309 0.436530 0.537456 0.000000
H 0.574195 0.437674 0.559557 0.000000
C 0.539194 0.394193 0.572742 0.000000
H 0.525753 0.378089 0.581890 0.000000
H 0.560828 0.390695 0.579230 0.000000
H 0.532331 0.414799 0.579907 0.000000
C 0.533267 0.388475 0.475823 0.000000
H 0.520129 0.376128 0.488681 0.000000
C 0.511076 0.360234 0.435263 0.000000
H 0.522910 0.342803 0.425694 0.000000
H 0.498965 0.351809 0.453069 0.000000
C 0.609267 0.476487 0.465718 0.000000
H 0.627703 0.484284 0.477316 0.000000
H 0.616970 0.464072 0.447818 0.000000
N 0.532755 0.604414 0.426324 0.000000
O 0.537198 0.519257 0.387258 0.000000
C 0.554630 0.522736 0.413816 0.000000
C 0.553390 0.552094 0.428471 0.000000
C 0.571360 0.556553 0.454936 0.000000
H 0.570774 0.576390 0.464831 0.000000
C 0.590265 0.533498 0.467771 0.000000
C 0.590805 0.504303 0.453396 0.000000
C 0.573302 0.499331 0.426301 0.000000
H 0.574191 0.479611 0.416243 0.000000
C 0.539184 0.489922 0.371995 0.000000
H 0.525742 0.490038 0.353466 0.000000
H 0.560818 0.486050 0.365718 0.000000
H 0.532325 0.473399 0.386254 0.000000
C 0.533248 0.576713 0.415496 0.000000
H 0.520110 0.571741 0.398366 0.000000
C 0.511049 0.625952 0.411319 0.000000
H 0.522879 0.642943 0.401027 0.000000
H 0.498938 0.614749 0.395146 0.000000
C 0.609261 0.541458 0.496779 0.000000
H 0.627699 0.527527 0.497736 0.000000
H 0.616960 0.563162 0.494959 0.000000
N 0.532764 0.511602 0.627258 0.000000
O 0.537191 0.588008 0.573046 0.000000
C 0.554626 0.563273 0.562777 0.000000
C 0.553392 0.535898 0.580887 0.000000
C 0.571364 0.510766 0.571505 0.000000
H 0.570783 0.492282 0.583734 0.000000
C 0.590267 0.511164 0.545111 0.000000
C 0.590801 0.538235 0.527001 0.000000
C 0.573296 0.564185 0.536266 0.000000
H 0.574181 0.582738 0.524201 0.000000
C 0.539172 0.615897 0.555263 0.000000
H 0.525728 0.631881 0.564644 0.000000
H 0.560804 0.623273 0.555053 0.000000
H 0.532311 0.611789 0.533839 0.000000
C 0.533252 0.534822 0.608681 0.000000
H 0.520111 0.552161 0.612929 0.000000
C 0.511060 0.513817 0.653419 0.000000
H 0.522892 0.514261 0.673279 0.000000
H 0.498946 0.533442 0.651809 0.000000
C 0.609267 0.482088 0.537503 0.000000
H 0.627702 0.488227 0.524971 0.000000
H 0.616969 0.472801 0.557200 0.000000
N 0.467245 0.395586 0.426324 0.000000
O 0.462802 0.480743 0.387258 0.000000
C 0.445370 0.477264 0.413816 0.000000
C 0.446610 0.447906 0.428471 0.000000
C 0.428640 0.443447 0.454936 0.000000
H 0.429226 0.423610 0.464831 0.000000
C 0.409735 0.466502 0.467771 0.000000
C 0.409195 0.495697 0.453396 0.000000
C 0.426698 0.500669 0.426301 0.000000
H 0.425809 0.520389 0.416243 0.000000
C 0.460816 0.510078 0.371995 0.000000
H 0.474258 0.509962 0.353466 0.000000
H 0.439182 0.513950 0.365718 0.000000
H 0.467675 0.526601 0.386254 0.000000
C 0.466752 0.423287 0.415496 0.000000
H 0.479890 0.428259 0.398366 0.000000
C 0.488951 0.374048 0.411319 0.000000
H 0.477121 0.357057 0.401027 0.000000
H 0.501062 0.385251 0.395146 0.000000
C 0.390739 0.458542 0.496779 0.000000
H 0.372301 0.472473 0.497736 0.000000
H 0.383040 0.436838 0.494959 0.000000
N 0.467236 0.488398 0.627258 0.000000
O 0.462809 0.411992 0.573046 0.000000
C 0.445374 0.436727 0.562777 0.000000
C 0.446608 0.464102 0.580887 0.000000
C 0.428636 0.489234 0.571505 0.000000
H 0.429217 0.507718 0.583734 0.000000
C 0.409733 0.488836 0.545111 0.000000
C 0.409199 0.461765 0.527001 0.000000
C 0.426704 0.435815 0.536266 0.000000
H 0.425819 0.417262 0.524201 0.000000
C 0.460828 0.384103 0.555263 0.000000
H 0.474272 0.368119 0.564644 0.000000
H 0.439196 0.376727 0.555053 0.000000
H 0.467689 0.388211 0.533839 0.000000
C 0.466748 0.465178 0.608681 0.000000
H 0.479889 0.447839 0.612929 0.000000
C 0.488940 0.486183 0.653419 0.000000
H 0.477108 0.485739 0.673279 0.000000
H 0.501054 0.466558 0.651809 0.000000
C 0.390733 0.517912 0.537503 0.000000
H 0.372298 0.511773 0.524971 0.000000
H 0.383031 0.527199 0.557200 0.000000
N 0.467223 0.616006 0.446418 0.000000
O 0.462790 0.607254 0.539697 0.000000
C 0.445359 0.585992 0.523407 0.000000
C 0.446596 0.587976 0.490642 0.000000
C 0.428628 0.567297 0.473559 0.000000
H 0.429211 0.568651 0.451435 0.000000
C 0.409727 0.544635 0.487118 0.000000
C 0.409191 0.542488 0.519580 0.000000
C 0.426691 0.563470 0.537456 0.000000
H 0.425805 0.562326 0.559557 0.000000
C 0.460806 0.605807 0.572742 0.000000
H 0.474247 0.621911 0.581890 0.000000
H 0.439172 0.609305 0.579230 0.000000
H 0.467669 0.585201 0.579907 0.000000
C 0.466733 0.611525 0.475823 0.000000
H 0.479871 0.623872 0.488681 0.000000
C 0.488924 0.639766 0.435263 0.000000
H 0.477090 0.657197 0.425694 0.000000
H 0.501035 0.648191 0.453069 0.000000
C 0.390733 0.523513 0.465718 0.000000
H 0.372297 0.515716 0.477316 0.000000
H 0.383030 0.535928 0.447818 0.000000
